<?xml version="1.0" encoding="UTF-8"?>

<!-- generated on 2025-10-05 00:39:48.520069 by randomTrips.py v1_24_0+0000-b72eb3fabc8
<configuration>
    <net-file value="testmap2/map.net.xml"/>
    <route-file value="testmap2/map.rou.xml"/>
    <end value="10000.0"/>
    <period value="1.5"/>
</configuration>
-->

<routes xmlns:xsi="http://www.w3.org/2001/XMLSchema-instance" xsi:noNamespaceSchemaLocation="http://sumo.dlr.de/xsd/routes_file.xsd">
    <trip id="0" depart="0.00" from="34859765#0" to="-1189352199#2"/>
    <trip id="1" depart="1.50" from="-552169908#0" to="-455142372#1"/>
    <trip id="2" depart="3.00" from="559462248#0" to="-13949345#2"/>
    <trip id="3" depart="4.50" from="134807812#0" to="-1189933179#1"/>
    <trip id="4" depart="6.00" from="-4495238#3" to="145204590#0"/>
    <trip id="5" depart="7.50" from="-1169055178" to="-4393001#3"/>
    <trip id="6" depart="9.00" from="379622013#0" to="218971860#0"/>
    <trip id="7" depart="10.50" from="-4495264#2" to="24232453#0"/>
    <trip id="8" depart="12.00" from="532158277#0" to="43128188#0"/>
    <trip id="9" depart="13.50" from="1042405421#0" to="-27467570#2"/>
    <trip id="10" depart="15.00" from="601313557#0" to="1132425464#0"/>
    <trip id="11" depart="16.50" from="-13939469#1" to="-13955367#2"/>
    <trip id="12" depart="18.00" from="548338017#0" to="27338864#0"/>
    <trip id="13" depart="19.50" from="532158277#0" to="4495231#0"/>
    <trip id="14" depart="21.00" from="184558927#0" to="701273324#0"/>
    <trip id="15" depart="22.50" from="1193523318#0" to="23318289#2"/>
    <trip id="16" depart="24.00" from="548134627#0" to="31009357"/>
    <trip id="17" depart="25.50" from="548917390#0" to="24232447#0"/>
    <trip id="18" depart="27.00" from="43525657#0" to="-1210744482"/>
    <trip id="19" depart="28.50" from="-45156941#4" to="-562001220#1"/>
    <trip id="20" depart="30.00" from="-13856823#1" to="-532158277#2"/>
    <trip id="21" depart="31.50" from="-13949345#2" to="-560041131#9"/>
    <trip id="22" depart="33.00" from="341018763#0" to="1193523318#11"/>
    <trip id="23" depart="34.50" from="1189932537#0" to="-4495268"/>
    <trip id="24" depart="36.00" from="-549356141#1" to="572394518#0"/>
    <trip id="25" depart="37.50" from="379622012#0" to="280963233"/>
    <trip id="26" depart="39.00" from="-27467570#2" to="4495231#0"/>
    <trip id="27" depart="40.50" from="-24232452#2" to="1199451730"/>
    <trip id="28" depart="42.00" from="82086620#0" to="341018763#2"/>
    <trip id="29" depart="43.50" from="23318289#2" to="41900276#0"/>
    <trip id="30" depart="45.00" from="548134664" to="4687956#0"/>
    <trip id="31" depart="46.50" from="-45156941#4" to="-1192355872#1"/>
    <trip id="32" depart="48.00" from="-576802239#0" to="-559462248#1"/>
    <trip id="33" depart="49.50" from="-434329528#1" to="576802239#1"/>
    <trip id="34" depart="51.00" from="551944005#0" to="-80957819#1"/>
    <trip id="35" depart="52.50" from="38892916#5" to="123171014#2"/>
    <trip id="36" depart="54.00" from="560041133#0" to="13939717#0"/>
    <trip id="37" depart="55.50" from="-549356141#0" to="-548338020#1"/>
    <trip id="38" depart="57.00" from="24154399#0" to="-558245726#1"/>
    <trip id="39" depart="58.50" from="24232448#0" to="559462245#0"/>
    <trip id="40" depart="60.00" from="1228618604" to="-45156942#3"/>
    <trip id="41" depart="61.50" from="965957312#0" to="145204590#5"/>
    <trip id="42" depart="63.00" from="-13939212#9" to="-1227184777#0"/>
    <trip id="43" depart="64.50" from="-13955367#2" to="31017604#0"/>
    <trip id="44" depart="66.00" from="521436340#0" to="136125313#0"/>
    <trip id="45" depart="67.50" from="-123171014#2" to="1207089551#0"/>
    <trip id="46" depart="69.00" from="965871658" to="184558927#4"/>
    <trip id="47" depart="70.50" from="701273324#0" to="548338021#0"/>
    <trip id="48" depart="72.00" from="-1113744422#1" to="4479820#0"/>
    <trip id="49" depart="73.50" from="427779184#0" to="218284019#0"/>
    <trip id="50" depart="75.00" from="-549356141#1" to="341018763#2"/>
    <trip id="51" depart="76.50" from="-145204590#1" to="138424035#0"/>
    <trip id="52" depart="78.00" from="13856823#4" to="5772335#0"/>
    <trip id="53" depart="79.50" from="551944005#0" to="-558245726#1"/>
    <trip id="54" depart="81.00" from="13952186#0" to="-371345227#1"/>
    <trip id="55" depart="82.50" from="560041131#7" to="548917390#0"/>
    <trip id="56" depart="84.00" from="-560041133#3" to="341018763#0"/>
    <trip id="57" depart="85.50" from="28817691#0" to="-27338864#0"/>
    <trip id="58" depart="87.00" from="4576431#0" to="218926423#1"/>
    <trip id="59" depart="88.50" from="516074479#0" to="190714063#0"/>
    <trip id="60" depart="90.00" from="-1042405420#1" to="1019984136#0"/>
    <trip id="61" depart="91.50" from="-1136952411#3" to="560707568#0"/>
    <trip id="62" depart="93.00" from="551944006" to="548134624#0"/>
    <trip id="63" depart="94.50" from="-562001220#1" to="-1363263994#0"/>
    <trip id="64" depart="96.00" from="551944005#2" to="576802255"/>
    <trip id="65" depart="97.50" from="-13856823#8" to="13949352#2"/>
    <trip id="66" depart="99.00" from="-134807808#4" to="455142372#0"/>
    <trip id="67" depart="100.50" from="4576434" to="-218971860#3"/>
    <trip id="68" depart="102.00" from="13949328#0" to="23318289#0"/>
    <trip id="69" depart="103.50" from="-549356141#0" to="549020386#0"/>
    <trip id="70" depart="105.00" from="134807812#4" to="-4495269#2"/>
    <trip id="71" depart="106.50" from="184558927#4" to="4495231#0"/>
    <trip id="72" depart="108.00" from="-41276562#3" to="-75528935"/>
    <trip id="73" depart="109.50" from="965871658" to="379622009#0"/>
    <trip id="74" depart="111.00" from="138424023#0" to="149255265#0"/>
    <trip id="75" depart="112.50" from="-149255265#3" to="-4572095#2"/>
    <trip id="76" depart="114.00" from="1019984136#0" to="24232453#0"/>
    <trip id="77" depart="115.50" from="-45156942#3" to="-45156945"/>
    <trip id="78" depart="117.00" from="-45156941#4" to="559462252#0"/>
    <trip id="79" depart="118.50" from="548917388#0" to="-13856823#1"/>
    <trip id="80" depart="120.00" from="-5183081#1" to="41276562#0"/>
    <trip id="81" depart="121.50" from="-4483798#3" to="-23318289#1"/>
    <trip id="82" depart="123.00" from="576802235" to="24232445#0"/>
    <trip id="83" depart="124.50" from="13943878#0" to="516074479#0"/>
    <trip id="84" depart="126.00" from="532158278#0" to="-43068084#2"/>
    <trip id="85" depart="127.50" from="-13943878#1" to="1366477541"/>
    <trip id="86" depart="129.00" from="134807812#4" to="13949328#0"/>
    <trip id="87" depart="130.50" from="4495265#0" to="41276562#4"/>
    <trip id="88" depart="132.00" from="80414960" to="-145204590#1"/>
    <trip id="89" depart="133.50" from="123171014#0" to="1137689875#0"/>
    <trip id="90" depart="135.00" from="548917390#0" to="-549356141#0"/>
    <trip id="91" depart="136.50" from="-34859773#3" to="13856823#9"/>
    <trip id="92" depart="138.00" from="134807812#0" to="-560041131#9"/>
    <trip id="93" depart="139.50" from="-545985121#3" to="560108369#0"/>
    <trip id="94" depart="141.00" from="138424035#4" to="548704329#0"/>
    <trip id="95" depart="142.50" from="218931349#0" to="-123171014#2"/>
    <trip id="96" depart="144.00" from="97361190#0" to="548134627#0"/>
    <trip id="97" depart="145.50" from="68429685#4" to="560330502"/>
    <trip id="98" depart="147.00" from="548338018#0" to="-31009797#2"/>
    <trip id="99" depart="148.50" from="13949348#0" to="-45156939#1"/>
    <trip id="100" depart="150.00" from="123171014#0" to="-1363263994#0"/>
    <trip id="101" depart="151.50" from="1193523318#0" to="80414960"/>
    <trip id="102" depart="153.00" from="-549356141#0" to="516074476#0"/>
    <trip id="103" depart="154.50" from="13856823#9" to="136125313#0"/>
    <trip id="104" depart="156.00" from="601313557#0" to="965871658"/>
    <trip id="105" depart="157.50" from="23318289#0" to="4393001#1"/>
    <trip id="106" depart="159.00" from="-24154405#7" to="-573224067"/>
    <trip id="107" depart="160.50" from="68429685#4" to="24232447#3"/>
    <trip id="108" depart="162.00" from="-1225873761#1" to="24232451#0"/>
    <trip id="109" depart="163.50" from="13953747#0" to="548338017#0"/>
    <trip id="110" depart="165.00" from="-24232445#4" to="601313557#0"/>
    <trip id="111" depart="166.50" from="-13856823#1" to="-41276562#3"/>
    <trip id="112" depart="168.00" from="24232454#0" to="41276562#6"/>
    <trip id="113" depart="169.50" from="-4576428#3" to="-218926423#0"/>
    <trip id="114" depart="171.00" from="559462245#0" to="-548338020#1"/>
    <trip id="115" depart="172.50" from="24232454#0" to="31009357"/>
    <trip id="116" depart="174.00" from="134807808#0" to="24232449#0"/>
    <trip id="117" depart="175.50" from="147633774#0" to="572394516#0"/>
    <trip id="118" depart="177.00" from="-41276562#9" to="43815227#0"/>
    <trip id="119" depart="178.50" from="-5183081#1" to="123171014#2"/>
    <trip id="120" depart="180.00" from="415116459#0" to="-5937148#1"/>
    <trip id="121" depart="181.50" from="-601313557#2" to="45156939#2"/>
    <trip id="122" depart="183.00" from="-1366477530" to="13939469#0"/>
    <trip id="123" depart="184.50" from="97361190#0" to="965871658"/>
    <trip id="124" depart="186.00" from="-1384408037" to="-45156939#1"/>
    <trip id="125" depart="187.50" from="-549356141#0" to="562001220#0"/>
    <trip id="126" depart="189.00" from="552169908#1" to="550270765#0"/>
    <trip id="127" depart="190.50" from="1189352199#3" to="-29215872#1"/>
    <trip id="128" depart="192.00" from="548134659#0" to="434329528#0"/>
    <trip id="129" depart="193.50" from="29215872#0" to="80957819#0"/>
    <trip id="130" depart="195.00" from="38892916#0" to="-1113744422#1"/>
    <trip id="131" depart="196.50" from="545985121#2" to="-5937148#1"/>
    <trip id="132" depart="198.00" from="41276562#0" to="573224068"/>
    <trip id="133" depart="199.50" from="-218926423#2" to="-167403938#1"/>
    <trip id="134" depart="201.00" from="-13949348#3" to="23627948#0"/>
    <trip id="135" depart="202.50" from="-551944005#3" to="27338864#0"/>
    <trip id="136" depart="204.00" from="4483801#0" to="-4495237#1"/>
    <trip id="137" depart="205.50" from="341018763#0" to="-559462245#2"/>
    <trip id="138" depart="207.00" from="13949348#2" to="559462252#0"/>
    <trip id="139" depart="208.50" from="548338017#0" to="-13949348#1"/>
    <trip id="140" depart="210.00" from="134807812#4" to="-560041131#6"/>
    <trip id="141" depart="211.50" from="-1042405421#2" to="4576434"/>
    <trip id="142" depart="213.00" from="341018763#2" to="-558245719#1"/>
    <trip id="143" depart="214.50" from="4495269#0" to="23318289#2"/>
    <trip id="144" depart="216.00" from="136125313#0" to="-1132425461#1"/>
    <trip id="145" depart="217.50" from="-1384411680" to="551943989"/>
    <trip id="146" depart="219.00" from="559640400#0" to="218971860#4"/>
    <trip id="147" depart="220.50" from="548134659#2" to="24232449#0"/>
    <trip id="148" depart="222.00" from="-23920557#9" to="-218971860#3"/>
    <trip id="149" depart="223.50" from="-562001220#1" to="559462248#0"/>
    <trip id="150" depart="225.00" from="521436342#0" to="548338021#0"/>
    <trip id="151" depart="226.50" from="559462252#0" to="-4495269#2"/>
    <trip id="152" depart="228.00" from="-545985121#3" to="-145204590#6"/>
    <trip id="153" depart="229.50" from="516074479#0" to="551943989"/>
    <trip id="154" depart="231.00" from="12618874#0" to="31009372#0"/>
    <trip id="155" depart="232.50" from="-24154405#7" to="560707568#0"/>
    <trip id="156" depart="234.00" from="549356141#0" to="71167245#0"/>
    <trip id="157" depart="235.50" from="-1169055177#1" to="4495265#0"/>
    <trip id="158" depart="237.00" from="-80957819#1" to="560707572#1"/>
    <trip id="159" depart="238.50" from="521460740#0" to="548704330"/>
    <trip id="160" depart="240.00" from="520140572#0" to="-149255265#2"/>
    <trip id="161" depart="241.50" from="551943988" to="548338020#0"/>
    <trip id="162" depart="243.00" from="-4495269#2" to="534546682#0"/>
    <trip id="163" depart="244.50" from="13872885#0" to="-618449786#2"/>
    <trip id="164" depart="246.00" from="521436341#0" to="-5183081#1"/>
    <trip id="165" depart="247.50" from="-1169055177#1" to="-434329528#1"/>
    <trip id="166" depart="249.00" from="-75528935" to="548704330"/>
    <trip id="167" depart="250.50" from="68429685#0" to="-560041131#9"/>
    <trip id="168" depart="252.00" from="34859772#0" to="12618874#1"/>
    <trip id="169" depart="253.50" from="80414957#0" to="218284019#0"/>
    <trip id="170" depart="255.00" from="576802246" to="-167403938#1"/>
    <trip id="171" depart="256.50" from="701273324#0" to="-371345227#1"/>
    <trip id="172" depart="258.00" from="618449786#3" to="-559462245#2"/>
    <trip id="173" depart="259.50" from="-13955367#2" to="138424035#0"/>
    <trip id="174" depart="261.00" from="4495265#0" to="-80414960"/>
    <trip id="175" depart="262.50" from="27467570#0" to="146783879#0"/>
    <trip id="176" depart="264.00" from="1193523318#5" to="24232447#0"/>
    <trip id="177" depart="265.50" from="-548338020#1" to="434329532#1"/>
    <trip id="178" depart="267.00" from="-1042405420#1" to="560330502"/>
    <trip id="179" depart="268.50" from="184558927#4" to="4393004#0"/>
    <trip id="180" depart="270.00" from="45156939#0" to="41276562#3"/>
    <trip id="181" depart="271.50" from="11785635#0" to="-13856823#1"/>
    <trip id="182" depart="273.00" from="41276562#0" to="1113744422#1"/>
    <trip id="183" depart="274.50" from="-573224068" to="548134664"/>
    <trip id="184" depart="276.00" from="4495231#0" to="-5937148#1"/>
    <trip id="185" depart="277.50" from="-564121200" to="1305368071#2"/>
    <trip id="186" depart="279.00" from="123171014#0" to="-573224067"/>
    <trip id="187" depart="280.50" from="-190714064#1" to="136124103"/>
    <trip id="188" depart="282.00" from="559462255#0" to="30989388#0"/>
    <trip id="189" depart="283.50" from="-560108369#2" to="224969284#0"/>
    <trip id="190" depart="285.00" from="-1042405420#1" to="-560707572#0"/>
    <trip id="191" depart="286.50" from="1363263994#1" to="24232448#0"/>
    <trip id="192" depart="288.00" from="38892916#0" to="13943878#0"/>
    <trip id="193" depart="289.50" from="138424035#4" to="-45156939#1"/>
    <trip id="194" depart="291.00" from="13943878#0" to="559462249#0"/>
    <trip id="195" depart="292.50" from="521436342#0" to="-31017604#1"/>
    <trip id="196" depart="294.00" from="-13856823#8" to="149255258#0"/>
    <trip id="197" depart="295.50" from="33819459" to="1122315095#0"/>
    <trip id="198" depart="297.00" from="545985121#2" to="45156939#0"/>
    <trip id="199" depart="298.50" from="41737284" to="-4572095#2"/>
    <trip id="200" depart="300.00" from="-41276562#2" to="-1189352199#2"/>
    <trip id="201" depart="301.50" from="-545985121#1" to="13949345#0"/>
    <trip id="202" depart="303.00" from="548338019#0" to="-13856823#11"/>
    <trip id="203" depart="304.50" from="1316608462#0" to="31020072#0"/>
    <trip id="204" depart="306.00" from="-379622014" to="43068084#0"/>
    <trip id="205" depart="307.50" from="13949352#2" to="-548338019#1"/>
    <trip id="206" depart="309.00" from="38892916#5" to="-1042406838#1"/>
    <trip id="207" depart="310.50" from="45156945" to="4576432"/>
    <trip id="208" depart="312.00" from="-13949348#3" to="1363263994#1"/>
    <trip id="209" depart="313.50" from="-31009357" to="5937149#2"/>
    <trip id="210" depart="315.00" from="145204590#5" to="-123171014#2"/>
    <trip id="211" depart="316.50" from="-545985121#3" to="548134664"/>
    <trip id="212" depart="318.00" from="13856823#9" to="521436341#0"/>
    <trip id="213" depart="319.50" from="41276562#4" to="80957819#0"/>
    <trip id="214" depart="321.00" from="24232454#4" to="576864697"/>
    <trip id="215" depart="322.50" from="559462245#0" to="28817691#0"/>
    <trip id="216" depart="324.00" from="4495231#0" to="1425360360#0"/>
    <trip id="217" depart="325.50" from="548134656" to="224969284#0"/>
    <trip id="218" depart="327.00" from="559462250#0" to="4495265#6"/>
    <trip id="219" depart="328.50" from="13949328#0" to="-552169909#1"/>
    <trip id="220" depart="330.00" from="-545985121#2" to="33819459"/>
    <trip id="221" depart="331.50" from="4576434" to="156494867#0"/>
    <trip id="222" depart="333.00" from="32434209" to="-560041131#3"/>
    <trip id="223" depart="334.50" from="-13856823#0" to="-560707572#0"/>
    <trip id="224" depart="336.00" from="-551944005#3" to="-965871658"/>
    <trip id="225" depart="337.50" from="190714063#0" to="-24154399#3"/>
    <trip id="226" depart="339.00" from="-455142372#1" to="43067652"/>
    <trip id="227" depart="340.50" from="43525659#0" to="-1384408037"/>
    <trip id="228" depart="342.00" from="12618874#1" to="218931349#0"/>
    <trip id="229" depart="343.50" from="1316608462#0" to="-4495264#2"/>
    <trip id="230" depart="345.00" from="134807812#0" to="559462252#0"/>
    <trip id="231" depart="346.50" from="24232448#0" to="43067652"/>
    <trip id="232" depart="348.00" from="548704329#0" to="4576428#0"/>
    <trip id="233" depart="349.50" from="1193523318#11" to="-1113744422#0"/>
    <trip id="234" depart="351.00" from="1136907984" to="45156941#0"/>
    <trip id="235" depart="352.50" from="548338020#0" to="5772334#0"/>
    <trip id="236" depart="354.00" from="134807808#0" to="4495268"/>
    <trip id="237" depart="355.50" from="218926423#1" to="27338864#0"/>
    <trip id="238" depart="357.00" from="-4495264#2" to="-45156942#3"/>
    <trip id="239" depart="358.50" from="1366477541" to="-1189933179#1"/>
    <trip id="240" depart="360.00" from="-97361190#2" to="415116459#0"/>
    <trip id="241" depart="361.50" from="123171014#2" to="-31009372#3"/>
    <trip id="242" depart="363.00" from="13939717#0" to="-218971860#3"/>
    <trip id="243" depart="364.50" from="31009797#0" to="-1189352199#5"/>
    <trip id="244" depart="366.00" from="1207089551#0" to="24154404#0"/>
    <trip id="245" depart="367.50" from="-1189352199#2" to="34859772#0"/>
    <trip id="246" depart="369.00" from="-218926423#4" to="13939841#0"/>
    <trip id="247" depart="370.50" from="-1199451730" to="1199451730"/>
    <trip id="248" depart="372.00" from="-434329528#1" to="1042405421#0"/>
    <trip id="249" depart="373.50" from="4576431#0" to="1199451730"/>
    <trip id="250" depart="375.00" from="45156946#0" to="548134624#0"/>
    <trip id="251" depart="376.50" from="-548134661" to="-13939212#9"/>
    <trip id="252" depart="378.00" from="-1136952411#3" to="218926423#1"/>
    <trip id="253" depart="379.50" from="97361190#0" to="11785635#0"/>
    <trip id="254" depart="381.00" from="379622013#0" to="501215198#0"/>
    <trip id="255" depart="382.50" from="381355533#0" to="45156941#0"/>
    <trip id="256" depart="384.00" from="577246823#0" to="-4393001#3"/>
    <trip id="257" depart="385.50" from="-1136952411#3" to="-27338864#0"/>
    <trip id="258" depart="387.00" from="-190714063#2" to="41276562#0"/>
    <trip id="259" depart="388.50" from="24154402#0" to="-45156942#3"/>
    <trip id="260" depart="390.00" from="434329532#1" to="4576431#0"/>
    <trip id="261" depart="391.50" from="-27338864#1" to="27467570#0"/>
    <trip id="262" depart="393.00" from="45156942#0" to="-167403938#1"/>
    <trip id="263" depart="394.50" from="547927330#0" to="602089646#0"/>
    <trip id="264" depart="396.00" from="-13955367#2" to="-1189352199#5"/>
    <trip id="265" depart="397.50" from="601313558#0" to="123171014#2"/>
    <trip id="266" depart="399.00" from="4483799#0" to="-13856823#8"/>
    <trip id="267" depart="400.50" from="43128188#0" to="31017604#0"/>
    <trip id="268" depart="402.00" from="-13949345#2" to="4576434"/>
    <trip id="269" depart="403.50" from="548338019#0" to="24518441#0"/>
    <trip id="270" depart="405.00" from="-149255265#3" to="80414957#0"/>
    <trip id="271" depart="406.50" from="520140570#0" to="1169055177#0"/>
    <trip id="272" depart="408.00" from="1363263993" to="1193523318#5"/>
    <trip id="273" depart="409.50" from="13954734#0" to="1163500948#0"/>
    <trip id="274" depart="411.00" from="548338018#0" to="545985121#2"/>
    <trip id="275" depart="412.50" from="-13949348#1" to="601313557#0"/>
    <trip id="276" depart="414.00" from="341018763#0" to="548134623#0"/>
    <trip id="277" depart="415.50" from="4393001#0" to="138424035#4"/>
    <trip id="278" depart="417.00" from="4495265#4" to="618449786#3"/>
    <trip id="279" depart="418.50" from="-551944003" to="521460740#0"/>
    <trip id="280" depart="420.00" from="184558927#4" to="13949349#0"/>
    <trip id="281" depart="421.50" from="1366477541" to="4495238#0"/>
    <trip id="282" depart="423.00" from="-551943988" to="548338017#0"/>
    <trip id="283" depart="424.50" from="548134656" to="-13943878#1"/>
    <trip id="284" depart="426.00" from="552169908#1" to="-548338019#1"/>
    <trip id="285" depart="427.50" from="13939469#0" to="280963233"/>
    <trip id="286" depart="429.00" from="1193523318#0" to="-1189932537#3"/>
    <trip id="287" depart="430.50" from="548338019#0" to="-38892917#2"/>
    <trip id="288" depart="432.00" from="-4393001#3" to="521436340#0"/>
    <trip id="289" depart="433.50" from="1042405421#0" to="550270765#0"/>
    <trip id="290" depart="435.00" from="434329532#1" to="-560041131#6"/>
    <trip id="291" depart="436.50" from="-1113744422#1" to="576862392#0"/>
    <trip id="292" depart="438.00" from="-13856823#8" to="4393004#0"/>
    <trip id="293" depart="439.50" from="13949348#2" to="45156946#0"/>
    <trip id="294" depart="441.00" from="43128188#0" to="34859773#0"/>
    <trip id="295" depart="442.50" from="13949349#0" to="520140572#0"/>
    <trip id="296" depart="444.00" from="-13939469#1" to="-455142372#1"/>
    <trip id="297" depart="445.50" from="434329522#0" to="-618449786#2"/>
    <trip id="298" depart="447.00" from="24232447#0" to="13949338#6"/>
    <trip id="299" depart="448.50" from="156494867#0" to="1363263994#1"/>
    <trip id="300" depart="450.00" from="45156941#0" to="1113744422#1"/>
    <trip id="301" depart="451.50" from="434329533#0" to="-559462252#1"/>
    <trip id="302" depart="453.00" from="-548134661" to="-218926423#0"/>
    <trip id="303" depart="454.50" from="-371345227#1" to="-218926423#0"/>
    <trip id="304" depart="456.00" from="184558927#0" to="4572095#0"/>
    <trip id="305" depart="457.50" from="-31020072#1" to="-45156941#4"/>
    <trip id="306" depart="459.00" from="13949345#3" to="4483801#0"/>
    <trip id="307" depart="460.50" from="75528934#0" to="167403938#0"/>
    <trip id="308" depart="462.00" from="-559462245#2" to="-145204590#4"/>
    <trip id="309" depart="463.50" from="-379622014" to="-5183081#1"/>
    <trip id="310" depart="465.00" from="-31009372#3" to="-1136907984"/>
    <trip id="311" depart="466.50" from="167403938#0" to="-560041131#3"/>
    <trip id="312" depart="468.00" from="75528930#1" to="23627948#0"/>
    <trip id="313" depart="469.50" from="434329528#0" to="-218931349#3"/>
    <trip id="314" depart="471.00" from="550270762#0" to="13952105#2"/>
    <trip id="315" depart="472.50" from="551943988" to="24232446#0"/>
    <trip id="316" depart="474.00" from="13939841#0" to="13856823#0"/>
    <trip id="317" depart="475.50" from="-31017604#1" to="-123171014#2"/>
    <trip id="318" depart="477.00" from="576862392#0" to="13949345#3"/>
    <trip id="319" depart="478.50" from="548134621" to="12618874#1"/>
    <trip id="320" depart="480.00" from="-1384408037" to="31020072#0"/>
    <trip id="321" depart="481.50" from="-1210744482" to="-24232449#2"/>
    <trip id="322" depart="483.00" from="24154402#0" to="-601313558#1"/>
    <trip id="323" depart="484.50" from="91360436#2" to="-190714064#1"/>
    <trip id="324" depart="486.00" from="4576432" to="27338864#1"/>
    <trip id="325" depart="487.50" from="521240513#2" to="-4576428#3"/>
    <trip id="326" depart="489.00" from="147633774#0" to="13856845#0"/>
    <trip id="327" depart="490.50" from="138424035#4" to="548338021#0"/>
    <trip id="328" depart="492.00" from="82086620#0" to="-618449786#2"/>
    <trip id="329" depart="493.50" from="31009797#0" to="280963233"/>
    <trip id="330" depart="495.00" from="4495269#0" to="576802255"/>
    <trip id="331" depart="496.50" from="-43068084#2" to="-4495269#2"/>
    <trip id="332" depart="498.00" from="38892917#0" to="-29215872#1"/>
    <trip id="333" depart="499.50" from="-31009338#3" to="-13856823#3"/>
    <trip id="334" depart="501.00" from="-1042405421#2" to="13856845#0"/>
    <trip id="335" depart="502.50" from="24232454#0" to="-564121200"/>
    <trip id="336" depart="504.00" from="-455142372#1" to="434329532#0"/>
    <trip id="337" depart="505.50" from="434329533#0" to="13939212#0"/>
    <trip id="338" depart="507.00" from="43067652" to="560108369#0"/>
    <trip id="339" depart="508.50" from="520140572#0" to="31009797#0"/>
    <trip id="340" depart="510.00" from="408388911#0" to="562001220#0"/>
    <trip id="341" depart="511.50" from="379622012#0" to="559462255#0"/>
    <trip id="342" depart="513.00" from="548134625#0" to="-13856823#11"/>
    <trip id="343" depart="514.50" from="-27338864#0" to="-622478770"/>
    <trip id="344" depart="516.00" from="45156942#0" to="24154406#0"/>
    <trip id="345" depart="517.50" from="-559462252#1" to="-218926423#4"/>
    <trip id="346" depart="519.00" from="43068084#0" to="434329522#0"/>
    <trip id="347" depart="520.50" from="576864697" to="13955367#0"/>
    <trip id="348" depart="522.00" from="13949352#2" to="-13939212#3"/>
    <trip id="349" depart="523.50" from="-1193523318#12" to="138424023#0"/>
    <trip id="350" depart="525.00" from="-618449786#5" to="-549356141#0"/>
    <trip id="351" depart="526.50" from="-13939212#9" to="601313558#0"/>
    <trip id="352" depart="528.00" from="548134659#2" to="24232446#2"/>
    <trip id="353" depart="529.50" from="5937148#0" to="97361190#0"/>
    <trip id="354" depart="531.00" from="415116459#0" to="-559462250#1"/>
    <trip id="355" depart="532.50" from="-1193523318#12" to="45156942#0"/>
    <trip id="356" depart="534.00" from="13943811#0" to="379622011"/>
    <trip id="357" depart="535.50" from="560041134#0" to="-38892917#2"/>
    <trip id="358" depart="537.00" from="24232448#0" to="33819458#0"/>
    <trip id="359" depart="538.50" from="13949352#0" to="-13949348#1"/>
    <trip id="360" depart="540.00" from="1132425464#0" to="1113744422#2"/>
    <trip id="361" depart="541.50" from="41455289#0" to="548338020#0"/>
    <trip id="362" depart="543.00" from="-80414960" to="43067652"/>
    <trip id="363" depart="544.50" from="-559462252#1" to="576802246"/>
    <trip id="364" depart="546.00" from="545985118#0" to="23318289#0"/>
    <trip id="365" depart="547.50" from="13856823#9" to="-80957819#1"/>
    <trip id="366" depart="549.00" from="-618449786#5" to="68429685#0"/>
    <trip id="367" depart="550.50" from="123171014#2" to="149255258#0"/>
    <trip id="368" depart="552.00" from="820530143#0" to="381355533#0"/>
    <trip id="369" depart="553.50" from="-34859772#1" to="1192355872#0"/>
    <trip id="370" depart="555.00" from="4572095#0" to="31009797#0"/>
    <trip id="371" depart="556.50" from="4576428#0" to="-4495237#1"/>
    <trip id="372" depart="558.00" from="218931349#0" to="560707567"/>
    <trip id="373" depart="559.50" from="138424023#0" to="43128188#0"/>
    <trip id="374" depart="561.00" from="-156494867#1" to="701273324#0"/>
    <trip id="375" depart="562.50" from="28817691#0" to="-545985121#2"/>
    <trip id="376" depart="564.00" from="-24232448#1" to="23318289#0"/>
    <trip id="377" depart="565.50" from="218971860#0" to="-13949348#3"/>
    <trip id="378" depart="567.00" from="91360436#0" to="560041131#0"/>
    <trip id="379" depart="568.50" from="13939212#0" to="-190714063#2"/>
    <trip id="380" depart="570.00" from="548134656" to="13954734#0"/>
    <trip id="381" depart="571.50" from="4483799#0" to="145204590#5"/>
    <trip id="382" depart="573.00" from="-551944005#3" to="548134627#0"/>
    <trip id="383" depart="574.50" from="79401665#0" to="-548338019#1"/>
    <trip id="384" depart="576.00" from="218971860#0" to="1207089551#2"/>
    <trip id="385" depart="577.50" from="560707567" to="145204590#2"/>
    <trip id="386" depart="579.00" from="551944006" to="548704330"/>
    <trip id="387" depart="580.50" from="-558245719#1" to="520140571#0"/>
    <trip id="388" depart="582.00" from="1316608462#0" to="562001220#0"/>
    <trip id="389" depart="583.50" from="13955367#0" to="545985121#0"/>
    <trip id="390" depart="585.00" from="-559462245#2" to="-576802239#0"/>
    <trip id="391" depart="586.50" from="24232449#0" to="97361190#0"/>
    <trip id="392" depart="588.00" from="13949349#0" to="-24232449#2"/>
    <trip id="393" depart="589.50" from="184558927#4" to="1169055176"/>
    <trip id="394" depart="591.00" from="218971860#0" to="218971860#0"/>
    <trip id="395" depart="592.50" from="13856823#9" to="-97361190#2"/>
    <trip id="396" depart="594.00" from="-34859772#1" to="43128188#0"/>
    <trip id="397" depart="595.50" from="24154405#0" to="-532158278#1"/>
    <trip id="398" depart="597.00" from="501215198#0" to="-1193523318#7"/>
    <trip id="399" depart="598.50" from="45156939#2" to="434329532#0"/>
    <trip id="400" depart="600.00" from="534546682#0" to="1209675005#1"/>
    <trip id="401" depart="601.50" from="41276562#0" to="545985121#0"/>
    <trip id="402" depart="603.00" from="80414957#0" to="13954536"/>
    <trip id="403" depart="604.50" from="-1193523318#10" to="1412679416#0"/>
    <trip id="404" depart="606.00" from="24232452#0" to="548917390#0"/>
    <trip id="405" depart="607.50" from="551943989" to="13856823#0"/>
    <trip id="406" depart="609.00" from="149255258#0" to="13939469#0"/>
    <trip id="407" depart="610.50" from="4495237#0" to="1316608460#0"/>
    <trip id="408" depart="612.00" from="38892916#0" to="-27467570#2"/>
    <trip id="409" depart="613.50" from="13939841#0" to="68429685#0"/>