<?xml version="1.0" encoding="UTF-8"?>

<!-- generated on 2025-10-05 00:35:57 by Eclipse SUMO netedit Version 1.24.0
<neteditConfiguration xmlns:xsi="http://www.w3.org/2001/XMLSchema-instance" xsi:noNamespaceSchemaLocation="http://sumo.dlr.de/xsd/neteditConfiguration.xsd">

    <input>
        <sumo-net-file value="/Users/nicoloagostara/Desktop/NASA/testmap2/map.net.xml"/>
    </input>

    <output>
        <output-file value="/Users/nicoloagostara/Desktop/NASA/testmap2/map.net.xml"/>
    </output>

    <processing>
        <geometry.min-radius.fix.railways value="false"/>
        <geometry.avoid-overlap value="false"/>
        <geometry.max-grade.fix value="false"/>
        <offset.disable-normalization value="true"/>
        <lefthand value="0"/>
    </processing>

    <junctions>
        <no-turnarounds value="true"/>
        <junctions.corner-detail value="5"/>
        <junctions.limit-turn-speed value="5.50"/>
        <rectangular-lane-cut value="0"/>
    </junctions>

    <pedestrian>
        <walkingareas value="0"/>
    </pedestrian>

</neteditConfiguration>
-->

<net version="1.20" junctionCornerDetail="5" limitTurnSpeed="5.50" avoidOverlap="0" xmlns:xsi="http://www.w3.org/2001/XMLSchema-instance" xsi:noNamespaceSchemaLocation="http://sumo.dlr.de/xsd/net_file.xsd">

    <location netOffset="-465483.55,-5246139.34" convBoundary="0.00,0.00,1497.12,1652.01" origBoundary="8.535190,47.362804,8.571739,47.409182" projParameter="+proj=utm +zone=32 +ellps=WGS84 +datum=WGS84 +units=m +no_defs"/>

    <type id="highway.living_street" priority="2" numLanes="1" speed="2.78" disallow="tram rail_urban rail rail_electric rail_fast ship container cable_car subway aircraft wheelchair scooter drone" oneway="0"/>
    <type id="highway.primary" priority="12" numLanes="2" speed="27.78" disallow="tram rail_urban rail rail_electric rail_fast ship container cable_car subway aircraft wheelchair scooter drone" oneway="0"/>
    <type id="highway.residential" priority="3" numLanes="1" speed="13.89" disallow="tram rail_urban rail rail_electric rail_fast ship container cable_car subway aircraft wheelchair scooter drone" oneway="0"/>
    <type id="highway.secondary" priority="11" numLanes="1" speed="27.78" disallow="tram rail_urban rail rail_electric rail_fast ship container cable_car subway aircraft wheelchair scooter drone" oneway="0"/>
    <type id="highway.tertiary" priority="10" numLanes="1" speed="22.22" disallow="tram rail_urban rail rail_electric rail_fast ship container cable_car subway aircraft wheelchair scooter drone" oneway="0"/>

    <edge id=":102384703_0" function="internal">
        <lane id=":102384703_0_0" index="0" disallow="pedestrian tram rail_urban rail rail_electric rail_fast ship container cable_car subway aircraft wheelchair scooter drone" speed="7.38" length="10.20" shape="346.77,1401.63 345.71,1399.55 343.96,1398.18 341.53,1397.49 338.41,1397.50"/>
    </edge>
    <edge id=":102384703_1" function="internal">
        <lane id=":102384703_1_0" index="0" disallow="pedestrian tram rail_urban rail rail_electric rail_fast ship container cable_car subway aircraft wheelchair scooter drone" speed="8.33" length="10.71" shape="346.77,1401.63 345.68,1398.74 344.62,1396.69 343.72,1394.61 343.10,1391.63"/>
    </edge>
    <edge id=":102384703_2" function="internal">
        <lane id=":102384703_2_0" index="0" disallow="pedestrian tram rail_urban rail rail_electric rail_fast ship container cable_car subway aircraft wheelchair scooter drone" speed="7.17" length="11.33" shape="346.27,1391.24 346.03,1393.65 344.63,1395.50 342.09,1396.78 338.41,1397.50"/>
    </edge>
    <edge id=":102384703_3" function="internal">
        <lane id=":102384703_3_0" index="0" disallow="pedestrian tram rail_urban rail rail_electric rail_fast ship container cable_car subway aircraft wheelchair scooter drone" speed="3.65" length="4.67" shape="346.27,1391.24 345.62,1392.53 344.88,1393.02 344.03,1392.72 343.10,1391.63"/>
    </edge>
    <edge id=":1037225151_0" function="internal">
        <lane id=":1037225151_0_0" index="0" disallow="tram rail_urban rail rail_electric rail_fast ship container cable_car subway aircraft wheelchair scooter drone" speed="8.33" length="3.02" shape="649.53,616.26 649.19,617.09 649.05,617.69 648.91,618.29 648.58,619.12"/>
    </edge>
    <edge id=":1037225151_1" function="internal">
        <lane id=":1037225151_1_0" index="0" disallow="tram rail_urban rail rail_electric rail_fast ship container cable_car subway aircraft wheelchair scooter drone" speed="8.33" length="3.04" width="2.40" shape="645.70,617.72 646.14,616.94 646.53,616.45 646.93,615.97 647.38,615.19"/>
    </edge>
    <edge id=":105515989_0" function="internal">
        <lane id=":105515989_0_0" index="0" disallow="tram rail_urban rail rail_electric rail_fast ship container cable_car subway aircraft wheelchair scooter drone" speed="6.79" length="8.94" shape="449.03,478.37 446.88,477.28 444.83,477.07 442.88,477.74 441.03,479.28"/>
    </edge>
    <edge id=":105515989_1" function="internal">
        <lane id=":105515989_1_0" index="0" disallow="tram rail_urban rail rail_electric rail_fast ship container cable_car subway aircraft wheelchair scooter drone" speed="3.65" length="1.44" shape="449.03,478.37 448.50,477.03"/>
    </edge>
    <edge id=":105515989_4" function="internal">
        <lane id=":105515989_4_0" index="0" disallow="tram rail_urban rail rail_electric rail_fast ship container cable_car subway aircraft wheelchair scooter drone" speed="3.65" length="3.23" shape="448.50,477.03 448.62,476.14 449.41,475.71 450.85,475.74"/>
    </edge>
    <edge id=":105515989_2" function="internal">
        <lane id=":105515989_2_0" index="0" disallow="tram rail_urban rail rail_electric rail_fast ship container cable_car subway aircraft wheelchair scooter drone" speed="13.89" length="11.39" shape="440.55,470.96 443.38,472.41 445.76,473.26 448.11,474.16 450.85,475.74"/>
    </edge>
    <edge id=":105515989_3" function="internal">
        <lane id=":105515989_3_0" index="0" disallow="tram rail_urban rail rail_electric rail_fast ship container cable_car subway aircraft wheelchair scooter drone" speed="6.59" length="5.79" shape="440.55,470.96 442.52,472.67 443.25,474.62 443.01,475.69"/>
    </edge>
    <edge id=":105515989_5" function="internal">
        <lane id=":105515989_5_0" index="0" disallow="tram rail_urban rail rail_electric rail_fast ship container cable_car subway aircraft wheelchair scooter drone" speed="6.59" length="4.17" shape="443.01,475.69 442.76,476.83 441.03,479.28"/>
    </edge>
    <edge id=":105515992_0" function="internal">
        <lane id=":105515992_0_0" index="0" disallow="pedestrian tram rail_urban rail rail_electric rail_fast ship container cable_car subway aircraft wheelchair scooter drone" speed="6.76" length="8.90" width="3.00" shape="366.75,548.44 364.38,548.35 362.45,549.03 360.98,550.47 359.95,552.67"/>
    </edge>
    <edge id=":105515992_1" function="internal">
        <lane id=":105515992_1_0" index="0" disallow="pedestrian tram rail_urban rail rail_electric rail_fast ship container cable_car subway aircraft wheelchair scooter drone" speed="13.89" length="10.39" width="3.00" shape="361.84,542.12 361.64,545.31 361.38,547.48 360.87,549.61 359.95,552.67"/>
        <lane id=":105515992_1_1" index="1" disallow="pedestrian tram rail_urban rail rail_electric rail_fast ship container cable_car subway aircraft wheelchair scooter drone" speed="13.89" length="10.39" width="3.00" shape="358.84,541.96 358.66,544.93 358.42,546.95 357.95,548.94 357.09,551.78"/>
    </edge>
    <edge id=":10558422105_0" function="internal">
        <lane id=":10558422105_0_0" index="0" disallow="pedestrian tram rail_urban rail rail_electric rail_fast ship container cable_car subway aircraft wheelchair scooter drone" speed="11.11" length="0.30" shape="415.69,1113.81 415.61,1114.09"/>
    </edge>
    <edge id=":10559208443_0" function="internal">
        <lane id=":10559208443_0_0" index="0" disallow="pedestrian tram rail_urban rail rail_electric rail_fast ship container cable_car subway aircraft wheelchair scooter drone" speed="8.33" length="2.99" width="2.50" shape="1182.24,148.95 1180.46,151.36"/>
    </edge>
    <edge id=":10559208443_1" function="internal">
        <lane id=":10559208443_1_0" index="0" disallow="pedestrian tram rail_urban rail rail_electric rail_fast ship container cable_car subway aircraft wheelchair scooter drone" speed="8.33" length="3.01" width="2.80" shape="1178.37,149.98 1179.91,147.40"/>
    </edge>
    <edge id=":10598744311_0" function="internal">
        <lane id=":10598744311_0_0" index="0" disallow="pedestrian tram rail_urban rail rail_electric rail_fast ship container cable_car subway aircraft wheelchair scooter drone" speed="10.09" length="4.05" shape="112.55,997.26 113.23,998.16 113.39,998.96 113.39,999.86 113.61,1001.05"/>
    </edge>
    <edge id=":10604930325_0" function="internal">
        <lane id=":10604930325_0_0" index="0" disallow="pedestrian tram rail_urban rail rail_electric rail_fast ship container cable_car subway aircraft wheelchair scooter drone" speed="8.33" length="0.93" shape="586.10,1091.02 586.46,1090.16"/>
    </edge>
    <edge id=":10604930325_1" function="internal">
        <lane id=":10604930325_1_0" index="0" disallow="pedestrian tram rail_urban rail rail_electric rail_fast ship container cable_car subway aircraft wheelchair scooter drone" speed="8.33" length="0.93" shape="583.50,1088.94 583.15,1089.79"/>
    </edge>
    <edge id=":10605667574_0" function="internal">
        <lane id=":10605667574_0_0" index="0" disallow="tram rail_urban rail rail_electric rail_fast ship container cable_car subway aircraft wheelchair scooter drone" speed="7.27" length="12.70" shape="744.76,1266.15 742.45,1264.33 739.89,1264.04 737.08,1265.27 734.02,1268.02"/>
    </edge>
    <edge id=":10605667574_1" function="internal">
        <lane id=":10605667574_1_0" index="0" disallow="tram rail_urban rail rail_electric rail_fast ship container cable_car subway aircraft wheelchair scooter drone" speed="8.33" length="14.80" shape="744.76,1266.15 734.77,1255.22"/>
    </edge>
    <edge id=":10605667574_2" function="internal">
        <lane id=":10605667574_2_0" index="0" disallow="tram rail_urban rail rail_electric rail_fast ship container cable_car subway aircraft wheelchair scooter drone" speed="3.96" length="5.92" shape="744.76,1266.15 743.48,1264.84 743.20,1263.75 743.90,1262.86 745.60,1262.18"/>
    </edge>
    <edge id=":10605667574_3" function="internal">
        <lane id=":10605667574_3_0" index="0" disallow="tram rail_urban rail rail_electric rail_fast ship container cable_car subway aircraft wheelchair scooter drone" speed="8.33" length="11.22" shape="737.88,1254.11 739.70,1256.66 741.48,1258.33 743.39,1259.92 745.60,1262.18"/>
    </edge>
    <edge id=":10605667574_4" function="internal">
        <lane id=":10605667574_4_0" index="0" disallow="tram rail_urban rail rail_electric rail_fast ship container cable_car subway aircraft wheelchair scooter drone" speed="8.33" length="15.46" shape="737.88,1254.11 738.93,1257.18 738.64,1260.52 737.00,1264.13 734.02,1268.02"/>
    </edge>
    <edge id=":10605667574_5" function="internal">
        <lane id=":10605667574_5_0" index="0" disallow="tram rail_urban rail rail_electric rail_fast ship container cable_car subway aircraft wheelchair scooter drone" speed="3.72" length="4.81" shape="737.88,1254.11 737.52,1255.55 736.88,1256.22 735.97,1256.11 734.77,1255.22"/>
    </edge>
    <edge id=":10605667574_6" function="internal">
        <lane id=":10605667574_6_0" index="0" disallow="tram rail_urban rail rail_electric rail_fast ship container cable_car subway aircraft wheelchair scooter drone" speed="7.53" length="10.38" shape="732.83,1264.57 734.76,1262.00 735.72,1259.58 735.73,1257.32 734.77,1255.22"/>
    </edge>
    <edge id=":10605667574_7" function="internal">
        <lane id=":10605667574_7_0" index="0" disallow="tram rail_urban rail rail_electric rail_fast ship container cable_car subway aircraft wheelchair scooter drone" speed="7.88" length="15.11" shape="732.83,1264.57 736.50,1261.25 739.85,1259.75 742.88,1260.06 745.60,1262.18"/>
    </edge>
    <edge id=":10605667574_8" function="internal">
        <lane id=":10605667574_8_0" index="0" disallow="tram rail_urban rail rail_electric rail_fast ship container cable_car subway aircraft wheelchair scooter drone" speed="3.82" length="5.34" shape="732.83,1264.57 734.43,1264.99 735.15,1265.70 735.02,1266.71 734.02,1268.02"/>
    </edge>
    <edge id=":10616659184_0" function="internal">
        <lane id=":10616659184_0_0" index="0" disallow="tram rail_urban rail rail_electric rail_fast ship container cable_car subway aircraft wheelchair scooter drone" speed="3.65" length="4.67" shape="733.35,1253.21 733.31,1251.77 733.74,1250.98 734.62,1250.85 735.97,1251.37"/>
    </edge>
    <edge id=":10871257649_0" function="internal">
        <lane id=":10871257649_0_0" index="0" disallow="pedestrian tram rail_urban rail rail_electric rail_fast ship container cable_car subway aircraft wheelchair scooter drone" speed="13.89" length="9.00" shape="345.00,244.07 341.15,252.20"/>
    </edge>
    <edge id=":10871257649_1" function="internal">
        <lane id=":10871257649_1_0" index="0" disallow="pedestrian tram rail_urban rail rail_electric rail_fast ship container cable_car subway aircraft wheelchair scooter drone" speed="13.89" length="9.36" shape="338.26,250.83 338.98,248.13 338.74,246.08 338.49,244.03 339.22,241.33"/>
        <lane id=":10871257649_1_1" index="1" disallow="pedestrian tram rail_urban rail rail_electric rail_fast ship container cable_car subway aircraft wheelchair scooter drone" speed="13.89" length="9.36" shape="338.26,250.83 342.11,242.70"/>
    </edge>
    <edge id=":1088059151_0" function="internal">
        <lane id=":1088059151_0_0" index="0" disallow="tram rail_urban rail rail_electric rail_fast ship container cable_car subway aircraft wheelchair scooter drone" speed="6.80" length="8.66" shape="102.84,1227.00 100.53,1227.20 98.71,1228.06 97.40,1229.57 96.59,1231.75"/>
    </edge>
    <edge id=":1088059151_1" function="internal">
        <lane id=":1088059151_1_0" index="0" disallow="tram rail_urban rail rail_electric rail_fast ship container cable_car subway aircraft wheelchair scooter drone" speed="8.62" length="7.98" shape="102.84,1227.00 99.93,1226.01 97.95,1223.39 97.56,1221.82"/>
    </edge>
    <edge id=":1088059151_4" function="internal">
        <lane id=":1088059151_4_0" index="0" disallow="tram rail_urban rail rail_electric rail_fast ship container cable_car subway aircraft wheelchair scooter drone" speed="8.62" length="8.66" shape="97.56,1221.82 96.90,1219.13 96.78,1213.24"/>
    </edge>
    <edge id=":1088059151_2" function="internal">
        <lane id=":1088059151_2_0" index="0" disallow="tram rail_urban rail rail_electric rail_fast ship container cable_car subway aircraft wheelchair scooter drone" speed="13.89" length="18.13" shape="93.46,1231.05 94.41,1226.91 95.43,1222.19 96.31,1217.45 96.78,1213.24"/>
    </edge>
    <edge id=":1088059151_3" function="internal">
        <lane id=":1088059151_3_0" index="0" disallow="tram rail_urban rail rail_electric rail_fast ship container cable_car subway aircraft wheelchair scooter drone" speed="3.65" length="1.44" shape="93.46,1231.05 94.51,1230.06"/>
    </edge>
    <edge id=":1088059151_5" function="internal">
        <lane id=":1088059151_5_0" index="0" disallow="tram rail_urban rail rail_electric rail_fast ship container cable_car subway aircraft wheelchair scooter drone" speed="3.65" length="3.23" shape="94.51,1230.06 95.37,1229.84 96.07,1230.41 96.59,1231.75"/>
    </edge>
    <edge id=":110420223_0" function="internal">
        <lane id=":110420223_0_0" index="0" disallow="pedestrian tram rail_urban rail rail_electric rail_fast ship container cable_car subway aircraft wheelchair scooter drone" speed="7.05" length="10.53" width="4.90" shape="162.68,1105.54 159.50,1105.85 157.18,1106.87 155.70,1108.60 155.08,1111.05"/>
    </edge>
    <edge id=":110420223_1" function="internal">
        <lane id=":110420223_1_0" index="0" disallow="tram rail_urban rail rail_electric rail_fast ship container cable_car subway aircraft wheelchair scooter drone" speed="3.23" length="3.65" width="2.50" shape="162.68,1105.54 161.75,1104.91 161.44,1104.28 161.76,1103.66 162.70,1103.04"/>
    </edge>
    <edge id=":110420223_2" function="internal">
        <lane id=":110420223_2_0" index="0" disallow="tram rail_urban rail rail_electric rail_fast ship container cable_car subway aircraft wheelchair scooter drone" speed="6.98" length="10.31" width="2.50" shape="155.98,1097.09 156.27,1099.66 157.49,1101.50 159.63,1102.63 162.70,1103.04"/>
    </edge>
    <edge id=":110420223_3" function="internal">
        <lane id=":110420223_3_0" index="0" disallow="pedestrian tram rail_urban rail rail_electric rail_fast ship container cable_car subway aircraft wheelchair scooter drone" speed="8.33" length="13.98" width="4.90" shape="155.98,1097.09 155.08,1111.05"/>
    </edge>
    <edge id=":110420923_0" function="internal">
        <lane id=":110420923_0_0" index="0" disallow="tram rail_urban rail rail_electric rail_fast ship container cable_car subway aircraft wheelchair scooter drone" speed="3.23" length="3.65" width="2.50" shape="195.69,991.87 196.56,991.16 197.25,991.05 197.76,991.53 198.07,992.61"/>
    </edge>
    <edge id=":11048941960_0" function="internal">
        <lane id=":11048941960_0_0" index="0" disallow="pedestrian tram rail_urban rail rail_electric rail_fast ship container cable_car subway aircraft wheelchair scooter drone" speed="3.65" length="4.67" shape="1073.98,1566.15 1073.42,1567.48 1072.71,1568.02 1071.85,1567.78 1070.84,1566.75"/>
    </edge>
    <edge id=":11124992572_0" function="internal">
        <lane id=":11124992572_0_0" index="0" disallow="pedestrian tram rail_urban rail rail_electric rail_fast ship container cable_car subway aircraft wheelchair scooter drone" speed="8.33" length="0.29" shape="714.67,1448.16 714.44,1447.99"/>
    </edge>
    <edge id=":11124992572_1" function="internal">
        <lane id=":11124992572_1_0" index="0" disallow="pedestrian tram rail_urban rail rail_electric rail_fast ship container cable_car subway aircraft wheelchair scooter drone" speed="8.33" length="0.31" shape="716.36,1445.43 716.61,1445.62"/>
    </edge>
    <edge id=":1127705198_0" function="internal">
        <lane id=":1127705198_0_0" index="0" disallow="tram rail_urban rail rail_electric rail_fast ship container cable_car subway aircraft wheelchair scooter drone" speed="8.33" length="15.36" shape="1010.12,1161.06 995.38,1165.38"/>
    </edge>
    <edge id=":1127705198_1" function="internal">
        <lane id=":1127705198_1_0" index="0" disallow="tram rail_urban rail rail_electric rail_fast ship container cable_car subway aircraft wheelchair scooter drone" speed="7.85" length="4.31" shape="1010.12,1161.06 1005.85,1161.59"/>
    </edge>
    <edge id=":1127705198_2" function="internal">
        <lane id=":1127705198_2_0" index="0" disallow="tram rail_urban rail rail_electric rail_fast ship container cable_car subway aircraft wheelchair scooter drone" speed="3.65" length="1.44" shape="1010.12,1161.06 1008.76,1160.61"/>
    </edge>
    <edge id=":1127705198_9" function="internal">
        <lane id=":1127705198_9_0" index="0" disallow="tram rail_urban rail rail_electric rail_fast ship container cable_car subway aircraft wheelchair scooter drone" speed="7.85" length="11.51" shape="1005.85,1161.59 1005.68,1161.61 1002.43,1160.51 1000.36,1157.77 999.49,1153.38"/>
    </edge>
    <edge id=":1127705198_10" function="internal">
        <lane id=":1127705198_10_0" index="0" disallow="tram rail_urban rail rail_electric rail_fast ship container cable_car subway aircraft wheelchair scooter drone" speed="3.65" length="3.23" shape="1008.76,1160.61 1008.16,1159.94 1008.34,1159.06 1009.28,1157.97"/>
    </edge>
    <edge id=":1127705198_3" function="internal">
        <lane id=":1127705198_3_0" index="0" disallow="tram rail_urban rail rail_electric rail_fast ship container cable_car subway aircraft wheelchair scooter drone" speed="6.32" length="9.82" shape="1002.68,1153.20 1003.23,1155.93 1004.51,1157.63 1006.53,1158.31 1009.28,1157.97"/>
    </edge>
    <edge id=":1127705198_4" function="internal">
        <lane id=":1127705198_4_0" index="0" disallow="tram rail_urban rail rail_electric rail_fast ship container cable_car subway aircraft wheelchair scooter drone" speed="8.33" length="15.42" shape="1002.68,1153.20 1002.42,1157.60 1001.12,1161.09 998.77,1163.69 995.38,1165.38"/>
    </edge>
    <edge id=":1127705198_5" function="internal">
        <lane id=":1127705198_5_0" index="0" disallow="tram rail_urban rail rail_electric rail_fast ship container cable_car subway aircraft wheelchair scooter drone" speed="3.65" length="1.44" shape="1002.68,1153.20 1001.95,1154.45"/>
    </edge>
    <edge id=":1127705198_11" function="internal">
        <lane id=":1127705198_11_0" index="0" disallow="tram rail_urban rail rail_electric rail_fast ship container cable_car subway aircraft wheelchair scooter drone" speed="3.65" length="3.23" shape="1001.95,1154.45 1001.17,1154.89 1000.35,1154.53 999.49,1153.38"/>
    </edge>
    <edge id=":1127705198_6" function="internal">
        <lane id=":1127705198_6_0" index="0" disallow="tram rail_urban rail rail_electric rail_fast ship container cable_car subway aircraft wheelchair scooter drone" speed="7.91" length="11.17" shape="994.41,1162.33 996.78,1161.12 998.41,1159.22 999.32,1156.64 999.49,1153.38"/>
    </edge>
    <edge id=":1127705198_7" function="internal">
        <lane id=":1127705198_7_0" index="0" disallow="tram rail_urban rail rail_electric rail_fast ship container cable_car subway aircraft wheelchair scooter drone" speed="8.33" length="15.50" shape="994.41,1162.33 1009.28,1157.97"/>
    </edge>
    <edge id=":1127705198_8" function="internal">
        <lane id=":1127705198_8_0" index="0" disallow="tram rail_urban rail rail_electric rail_fast ship container cable_car subway aircraft wheelchair scooter drone" speed="3.65" length="1.44" shape="994.41,1162.33 995.79,1162.73"/>
    </edge>
    <edge id=":1127705198_12" function="internal">
        <lane id=":1127705198_12_0" index="0" disallow="tram rail_urban rail rail_electric rail_fast ship container cable_car subway aircraft wheelchair scooter drone" speed="3.65" length="3.23" shape="995.79,1162.73 996.42,1163.37 996.28,1164.25 995.38,1165.38"/>
    </edge>
    <edge id=":115163604_0" function="internal">
        <lane id=":115163604_0_0" index="0" disallow="pedestrian tram rail_urban rail rail_electric rail_fast ship container cable_car subway aircraft wheelchair scooter drone" speed="7.24" length="12.09" shape="1264.94,1255.77 1262.78,1254.08 1260.33,1253.78 1257.57,1254.86 1254.52,1257.32"/>
    </edge>
    <edge id=":115163604_1" function="internal">
        <lane id=":115163604_1_0" index="0" disallow="pedestrian tram rail_urban rail rail_electric rail_fast ship container cable_car subway aircraft wheelchair scooter drone" speed="13.89" length="16.02" shape="1264.94,1255.77 1254.52,1243.60"/>
    </edge>
    <edge id=":115163604_2" function="internal">
        <lane id=":115163604_2_0" index="0" disallow="pedestrian tram rail_urban rail rail_electric rail_fast ship container cable_car subway aircraft wheelchair scooter drone" speed="9.23" length="5.49" shape="1264.94,1255.77 1262.84,1252.06 1262.77,1250.83"/>
    </edge>
    <edge id=":115163604_3" function="internal">
        <lane id=":115163604_3_0" index="0" disallow="pedestrian tram rail_urban rail rail_electric rail_fast ship container cable_car subway aircraft wheelchair scooter drone" speed="3.65" length="1.44" shape="1264.94,1255.77 1264.78,1254.34"/>
    </edge>
    <edge id=":115163604_16" function="internal">
        <lane id=":115163604_16_0" index="0" disallow="pedestrian tram rail_urban rail rail_electric rail_fast ship container cable_car subway aircraft wheelchair scooter drone" speed="9.23" length="12.69" shape="1262.77,1250.83 1262.62,1248.16 1264.29,1244.06 1267.85,1239.76"/>
    </edge>
    <edge id=":115163604_17" function="internal">
        <lane id=":115163604_17_0" index="0" disallow="pedestrian tram rail_urban rail rail_electric rail_fast ship container cable_car subway aircraft wheelchair scooter drone" speed="3.65" length="3.23" shape="1264.78,1254.34 1265.13,1253.51 1266.00,1253.30 1267.39,1253.70"/>
    </edge>
    <edge id=":115163604_4" function="internal">
        <lane id=":115163604_4_0" index="0" disallow="pedestrian tram rail_urban rail rail_electric rail_fast ship container cable_car subway aircraft wheelchair scooter drone" speed="7.97" length="13.31" shape="1270.09,1242.05 1267.34,1245.29 1265.97,1248.32 1265.99,1251.12 1267.39,1253.70"/>
    </edge>
    <edge id=":115163604_5" function="internal">
        <lane id=":115163604_5_0" index="0" disallow="pedestrian tram rail_urban rail rail_electric rail_fast ship container cable_car subway aircraft wheelchair scooter drone" speed="11.11" length="21.80" shape="1270.09,1242.05 1254.52,1257.32"/>
    </edge>
    <edge id=":115163604_6" function="internal">
        <lane id=":115163604_6_0" index="0" disallow="pedestrian tram rail_urban rail rail_electric rail_fast ship container cable_car subway aircraft wheelchair scooter drone" speed="8.76" length="5.60" shape="1270.09,1242.05 1265.68,1245.50"/>
    </edge>
    <edge id=":115163604_7" function="internal">
        <lane id=":115163604_7_0" index="0" disallow="pedestrian tram rail_urban rail rail_electric rail_fast ship container cable_car subway aircraft wheelchair scooter drone" speed="3.65" length="1.44" shape="1270.09,1242.05 1268.67,1242.31"/>
    </edge>
    <edge id=":115163604_18" function="internal">
        <lane id=":115163604_18_0" index="0" disallow="pedestrian tram rail_urban rail rail_electric rail_fast ship container cable_car subway aircraft wheelchair scooter drone" speed="8.76" length="12.38" shape="1265.68,1245.50 1261.62,1246.91 1257.90,1246.27 1254.52,1243.60"/>
    </edge>
    <edge id=":115163604_19" function="internal">
        <lane id=":115163604_19_0" index="0" disallow="pedestrian tram rail_urban rail rail_electric rail_fast ship container cable_car subway aircraft wheelchair scooter drone" speed="3.65" length="3.23" shape="1268.67,1242.31 1267.83,1242.02 1267.55,1241.17 1267.85,1239.76"/>
    </edge>
    <edge id=":115163604_8" function="internal">
        <lane id=":115163604_8_0" index="0" disallow="pedestrian tram rail_urban rail rail_electric rail_fast ship container cable_car subway aircraft wheelchair scooter drone" speed="6.63" length="9.83" shape="1259.36,1239.41 1261.41,1241.18 1263.51,1241.84 1265.66,1241.36 1267.85,1239.76"/>
    </edge>
    <edge id=":115163604_9" function="internal">
        <lane id=":115163604_9_0" index="0" disallow="pedestrian tram rail_urban rail rail_electric rail_fast ship container cable_car subway aircraft wheelchair scooter drone" speed="13.89" length="16.47" shape="1259.36,1239.41 1262.43,1243.72 1264.18,1247.45 1265.53,1250.73 1267.39,1253.70"/>
    </edge>
    <edge id=":115163604_10" function="internal">
        <lane id=":115163604_10_0" index="0" disallow="pedestrian tram rail_urban rail rail_electric rail_fast ship container cable_car subway aircraft wheelchair scooter drone" speed="9.14" length="4.13" shape="1256.94,1241.50 1259.05,1245.05"/>
    </edge>
    <edge id=":115163604_11" function="internal">
        <lane id=":115163604_11_0" index="0" disallow="pedestrian tram rail_urban rail rail_electric rail_fast ship container cable_car subway aircraft wheelchair scooter drone" speed="3.65" length="1.44" shape="1256.94,1241.50 1257.12,1242.93"/>
    </edge>
    <edge id=":115163604_20" function="internal">
        <lane id=":115163604_20_0" index="0" disallow="pedestrian tram rail_urban rail rail_electric rail_fast ship container cable_car subway aircraft wheelchair scooter drone" speed="9.14" length="13.80" shape="1259.05,1245.05 1259.15,1245.21 1259.48,1249.08 1257.94,1253.11 1254.52,1257.32"/>
    </edge>
    <edge id=":115163604_21" function="internal">
        <lane id=":115163604_21_0" index="0" disallow="pedestrian tram rail_urban rail rail_electric rail_fast ship container cable_car subway aircraft wheelchair scooter drone" speed="3.65" length="3.23" shape="1257.12,1242.93 1256.78,1243.76 1255.91,1243.98 1254.52,1243.60"/>
    </edge>
    <edge id=":115163604_12" function="internal">
        <lane id=":115163604_12_0" index="0" disallow="pedestrian tram rail_urban rail rail_electric rail_fast ship container cable_car subway aircraft wheelchair scooter drone" speed="7.12" length="10.50" shape="1252.28,1255.04 1253.87,1252.87 1254.37,1250.60 1253.78,1248.20 1252.11,1245.70"/>
    </edge>
    <edge id=":115163604_13" function="internal">
        <lane id=":115163604_13_0" index="0" disallow="pedestrian tram rail_urban rail rail_electric rail_fast ship container cable_car subway aircraft wheelchair scooter drone" speed="11.11" length="21.82" shape="1252.28,1255.04 1267.85,1239.76"/>
    </edge>
    <edge id=":115163604_14" function="internal">
        <lane id=":115163604_14_0" index="0" disallow="pedestrian tram rail_urban rail rail_electric rail_fast ship container cable_car subway aircraft wheelchair scooter drone" speed="8.60" length="5.58" shape="1252.28,1255.04 1256.54,1251.68 1256.68,1251.63"/>
    </edge>
    <edge id=":115163604_15" function="internal">
        <lane id=":115163604_15_0" index="0" disallow="pedestrian tram rail_urban rail rail_electric rail_fast ship container cable_car subway aircraft wheelchair scooter drone" speed="3.65" length="1.44" shape="1252.28,1255.04 1253.69,1254.76"/>
    </edge>
    <edge id=":115163604_22" function="internal">