<?xml version="1.0" encoding="UTF-8"?>

<!-- generated on 2025-10-04 22:28:39 by Eclipse SUMO netconvert Version 1.24.0
<netconvertConfiguration xmlns:xsi="http://www.w3.org/2001/XMLSchema-instance" xsi:noNamespaceSchemaLocation="http://sumo.dlr.de/xsd/netconvertConfiguration.xsd">

    <input>
        <osm-files value="testmap2/map.osm"/>
    </input>

    <output>
        <output-file value="testmap2/map.net.xml"/>
    </output>

    <projection>
        <proj.utm value="true"/>
    </projection>

    <processing>
        <geometry.remove value="true"/>
    </processing>

    <building_defaults>
        <default.junctions.radius value="4.5"/>
    </building_defaults>

    <tls_building>
        <tls.discard-simple value="true"/>
        <tls.guess.joining value="true"/>
        <tls.join value="true"/>
        <tls.guess-signals value="true"/>
    </tls_building>

    <ramp_guessing>
        <ramps.guess value="true"/>
    </ramp_guessing>

    <edge_removal>
        <keep-edges.by-vclass value="passenger"/>
    </edge_removal>

    <junctions>
        <junctions.join value="true"/>
    </junctions>

</netconvertConfiguration>
-->

<net version="1.20" junctionCornerDetail="5" limitTurnSpeed="5.50" xmlns:xsi="http://www.w3.org/2001/XMLSchema-instance" xsi:noNamespaceSchemaLocation="http://sumo.dlr.de/xsd/net_file.xsd">

    <location netOffset="-465164.34,-5246578.63" convBoundary="0.00,0.00,669.74,951.38" origBoundary="8.529768,47.365941,8.556134,47.409182" projParameter="+proj=utm +zone=32 +ellps=WGS84 +datum=WGS84 +units=m +no_defs"/>

    <type id="highway.living_street" priority="2" numLanes="1" speed="2.78" disallow="tram rail_urban rail rail_electric rail_fast ship container cable_car subway aircraft wheelchair scooter drone" oneway="0"/>
    <type id="highway.residential" priority="3" numLanes="1" speed="13.89" disallow="tram rail_urban rail rail_electric rail_fast ship container cable_car subway aircraft wheelchair scooter drone" oneway="0"/>
    <type id="highway.tertiary" priority="10" numLanes="1" speed="22.22" disallow="tram rail_urban rail rail_electric rail_fast ship container cable_car subway aircraft wheelchair scooter drone" oneway="0"/>

    <edge id=":1027163117_0" function="internal">
        <lane id=":1027163117_0_0" index="0" disallow="pedestrian tram rail_urban rail rail_electric rail_fast ship container cable_car subway aircraft wheelchair scooter drone" speed="13.89" length="1.16" shape="232.27,740.29 232.93,739.34"/>
    </edge>
    <edge id=":10598744311_0" function="internal">
        <lane id=":10598744311_0_0" index="0" disallow="pedestrian tram rail_urban rail rail_electric rail_fast ship container cable_car subway aircraft wheelchair scooter drone" speed="10.10" length="4.05" shape="431.76,557.98 432.44,558.88 432.59,559.68 432.60,560.57 432.81,561.76"/>
    </edge>
    <edge id=":1088059151_0" function="internal">
        <lane id=":1088059151_0_0" index="0" disallow="tram rail_urban rail rail_electric rail_fast ship container cable_car subway aircraft wheelchair scooter drone" speed="6.80" length="8.67" shape="422.06,787.71 419.74,787.91 417.92,788.76 416.60,790.28 415.79,792.46"/>
    </edge>
    <edge id=":1088059151_1" function="internal">
        <lane id=":1088059151_1_0" index="0" disallow="tram rail_urban rail rail_electric rail_fast ship container cable_car subway aircraft wheelchair scooter drone" speed="8.61" length="7.97" shape="422.06,787.71 419.14,786.72 417.16,784.11 416.77,782.55"/>
    </edge>
    <edge id=":1088059151_4" function="internal">
        <lane id=":1088059151_4_0" index="0" disallow="tram rail_urban rail rail_electric rail_fast ship container cable_car subway aircraft wheelchair scooter drone" speed="8.61" length="8.61" shape="416.77,782.55 416.10,779.88 415.98,774.02"/>
    </edge>
    <edge id=":1088059151_2" function="internal">
        <lane id=":1088059151_2_0" index="0" disallow="tram rail_urban rail rail_electric rail_fast ship container cable_car subway aircraft wheelchair scooter drone" speed="13.89" length="18.05" shape="412.67,791.75 413.61,787.63 414.64,782.93 415.51,778.22 415.98,774.02"/>
    </edge>
    <edge id=":1088059151_3" function="internal">
        <lane id=":1088059151_3_0" index="0" disallow="tram rail_urban rail rail_electric rail_fast ship container cable_car subway aircraft wheelchair scooter drone" speed="3.65" length="1.44" shape="412.67,791.75 413.71,790.76"/>
    </edge>
    <edge id=":1088059151_5" function="internal">
        <lane id=":1088059151_5_0" index="0" disallow="tram rail_urban rail rail_electric rail_fast ship container cable_car subway aircraft wheelchair scooter drone" speed="3.65" length="3.23" shape="413.71,790.76 414.58,790.55 415.27,791.11 415.79,792.46"/>
    </edge>
    <edge id=":110420223_0" function="internal">
        <lane id=":110420223_0_0" index="0" disallow="pedestrian tram rail_urban rail rail_electric rail_fast ship container cable_car subway aircraft wheelchair scooter drone" speed="7.05" length="10.53" width="4.90" shape="481.88,666.24 478.70,666.55 476.38,667.58 474.90,669.31 474.28,671.75"/>
    </edge>
    <edge id=":110420223_1" function="internal">
        <lane id=":110420223_1_0" index="0" disallow="tram rail_urban rail rail_electric rail_fast ship container cable_car subway aircraft wheelchair scooter drone" speed="3.23" length="3.65" width="2.50" shape="481.88,666.24 480.94,665.61 480.64,664.98 480.96,664.36 481.90,663.74"/>
    </edge>
    <edge id=":110420223_2" function="internal">
        <lane id=":110420223_2_0" index="0" disallow="tram rail_urban rail rail_electric rail_fast ship container cable_car subway aircraft wheelchair scooter drone" speed="6.98" length="10.31" width="2.50" shape="475.18,657.80 475.47,660.37 476.69,662.21 478.83,663.34 481.90,663.74"/>
    </edge>
    <edge id=":110420223_3" function="internal">
        <lane id=":110420223_3_0" index="0" disallow="pedestrian tram rail_urban rail rail_electric rail_fast ship container cable_car subway aircraft wheelchair scooter drone" speed="8.33" length="13.98" width="4.90" shape="475.18,657.80 474.28,671.75"/>
    </edge>
    <edge id=":110420923_0" function="internal">
        <lane id=":110420923_0_0" index="0" disallow="tram rail_urban rail rail_electric rail_fast ship container cable_car subway aircraft wheelchair scooter drone" speed="3.23" length="3.65" width="2.50" shape="514.89,552.57 515.76,551.86 516.45,551.75 516.96,552.24 517.27,553.32"/>
    </edge>
    <edge id=":11836728913_0" function="internal">
        <lane id=":11836728913_0_0" index="0" disallow="pedestrian tram rail_urban rail rail_electric rail_fast ship container cable_car subway aircraft wheelchair scooter drone" speed="13.89" length="10.82" shape="158.89,750.36 161.62,749.96 163.47,749.52 165.24,748.81 167.70,747.57"/>
        <lane id=":11836728913_0_1" index="1" disallow="pedestrian tram rail_urban rail rail_electric rail_fast ship container cable_car subway aircraft wheelchair scooter drone" speed="13.89" length="10.82" shape="158.89,750.36 161.95,750.41 164.17,751.01 166.33,751.30 169.16,750.41"/>
        <lane id=":11836728913_0_2" index="2" disallow="pedestrian tram rail_urban rail rail_electric rail_fast ship container cable_car subway aircraft wheelchair scooter drone" speed="13.89" length="10.82" shape="158.89,750.36 162.06,750.92 164.60,752.59 167.22,753.88 170.62,753.26"/>
    </edge>
    <edge id=":1357158539_0" function="internal">
        <lane id=":1357158539_0_0" index="0" disallow="tram rail_urban rail rail_electric rail_fast ship container cable_car subway aircraft wheelchair scooter drone" speed="13.89" length="8.38" shape="186.78,575.65 189.12,575.54 190.69,575.03 192.25,574.42 194.59,574.01"/>
        <lane id=":1357158539_0_1" index="1" disallow="tram rail_urban rail rail_electric rail_fast ship container cable_car subway aircraft wheelchair scooter drone" speed="13.89" length="8.38" shape="186.59,578.85 189.06,578.74 190.71,578.23 192.36,577.62 194.82,577.20"/>
        <lane id=":1357158539_0_2" index="2" disallow="tram rail_urban rail rail_electric rail_fast ship container cable_car subway aircraft wheelchair scooter drone" speed="13.89" length="8.38" shape="186.59,578.85 189.12,579.24 190.82,579.83 192.52,580.32 195.05,580.39"/>
    </edge>
    <edge id=":1493666302_0" function="internal">
        <lane id=":1493666302_0_0" index="0" disallow="tram rail_urban rail rail_electric rail_fast ship container cable_car subway aircraft wheelchair scooter drone" speed="13.89" length="9.35" shape="257.91,440.73 259.09,450.00"/>
    </edge>
    <edge id=":1493666302_1" function="internal">
        <lane id=":1493666302_1_0" index="0" disallow="tram rail_urban rail rail_electric rail_fast ship container cable_car subway aircraft wheelchair scooter drone" speed="3.65" length="1.44" shape="257.91,440.73 257.25,442.01"/>
    </edge>
    <edge id=":1493666302_4" function="internal">
        <lane id=":1493666302_4_0" index="0" disallow="tram rail_urban rail rail_electric rail_fast ship container cable_car subway aircraft wheelchair scooter drone" speed="3.65" length="3.23" shape="257.25,442.01 256.50,442.50 255.66,442.19 254.73,441.09"/>
    </edge>
    <edge id=":1493666302_2" function="internal">
        <lane id=":1493666302_2_0" index="0" disallow="tram rail_urban rail rail_electric rail_fast ship container cable_car subway aircraft wheelchair scooter drone" speed="13.89" length="15.63" shape="251.82,456.65 252.28,453.27 252.35,450.04 252.08,446.32 251.55,441.45"/>
        <lane id=":1493666302_2_1" index="1" disallow="tram rail_urban rail rail_electric rail_fast ship container cable_car subway aircraft wheelchair scooter drone" speed="13.89" length="15.63" shape="251.82,456.65 252.79,453.25 253.95,449.98 254.78,446.15 254.73,441.09"/>
    </edge>
    <edge id=":1493666360_0" function="internal">
        <lane id=":1493666360_0_0" index="0" disallow="pedestrian tram rail_urban rail rail_electric rail_fast ship container cable_car subway aircraft wheelchair scooter drone" speed="13.89" length="3.00" shape="408.98,583.68 406.16,582.66"/>
    </edge>
    <edge id=":1493666365_0" function="internal">
        <lane id=":1493666365_0_0" index="0" disallow="pedestrian tram rail_urban rail rail_electric rail_fast ship container cable_car subway aircraft wheelchair scooter drone" speed="11.11" length="9.89" width="7.00" shape="421.74,586.77 418.87,586.96 416.94,587.54 415.19,588.65 412.87,590.43"/>
    </edge>
    <edge id=":1493666365_1" function="internal">
        <lane id=":1493666365_1_0" index="0" disallow="pedestrian tram rail_urban rail rail_electric rail_fast ship container cable_car subway aircraft wheelchair scooter drone" speed="13.89" length="10.91" width="3.70" shape="421.74,586.77 418.64,586.68 416.35,586.29 414.11,585.57 411.18,584.48"/>
    </edge>
    <edge id=":1498834451_0" function="internal">
        <lane id=":1498834451_0_0" index="0" disallow="pedestrian tram rail_urban rail rail_electric rail_fast ship container cable_car subway aircraft wheelchair scooter drone" speed="7.62" length="4.55" width="3.50" shape="445.93,272.68 444.74,272.06 443.84,271.77 442.91,271.76 441.60,272.02"/>
    </edge>
    <edge id=":1498834451_1" function="internal">
        <lane id=":1498834451_1_0" index="0" disallow="pedestrian tram rail_urban rail rail_electric rail_fast ship container cable_car subway aircraft wheelchair scooter drone" speed="8.33" length="8.93" width="3.33" shape="440.82,268.61 443.33,267.63 445.11,266.58 446.82,266.10 449.11,266.81"/>
    </edge>
    <edge id=":1517807736_0" function="internal">
        <lane id=":1517807736_0_0" index="0" disallow="pedestrian tram rail_urban rail rail_electric rail_fast ship container cable_car subway aircraft wheelchair scooter drone" speed="8.33" length="9.26" width="3.33" shape="467.67,284.39 459.49,280.02"/>
        <lane id=":1517807736_0_1" index="1" disallow="pedestrian tram rail_urban rail rail_electric rail_fast ship container cable_car subway aircraft wheelchair scooter drone" speed="8.33" length="9.26" width="3.33" shape="469.24,281.44 461.08,277.09"/>
    </edge>
    <edge id=":1517807736_2" function="internal">
        <lane id=":1517807736_2_0" index="0" disallow="pedestrian tram rail_urban rail rail_electric rail_fast ship container cable_car subway aircraft wheelchair scooter drone" speed="3.73" length="1.50" width="3.33" shape="469.24,281.44 468.53,280.12"/>
    </edge>
    <edge id=":1517807736_7" function="internal">
        <lane id=":1517807736_7_0" index="0" disallow="pedestrian tram rail_urban rail rail_electric rail_fast ship container cable_car subway aircraft wheelchair scooter drone" speed="3.73" length="3.37" width="3.33" shape="468.53,280.12 468.55,279.19 469.31,278.65 470.80,278.50"/>
    </edge>
    <edge id=":1517807736_3" function="internal">
        <lane id=":1517807736_3_0" index="0" disallow="pedestrian tram rail_urban rail rail_electric rail_fast ship container cable_car subway aircraft wheelchair scooter drone" speed="8.33" length="9.22" width="3.33" shape="462.66,274.16 470.80,278.50"/>
    </edge>
    <edge id=":1517807736_4" function="internal">
        <lane id=":1517807736_4_0" index="0" disallow="pedestrian tram rail_urban rail rail_electric rail_fast ship container cable_car subway aircraft wheelchair scooter drone" speed="3.73" length="1.50" width="3.33" shape="462.66,274.16 463.37,275.49"/>
    </edge>
    <edge id=":1517807736_8" function="internal">
        <lane id=":1517807736_8_0" index="0" disallow="pedestrian tram rail_urban rail rail_electric rail_fast ship container cable_car subway aircraft wheelchair scooter drone" speed="3.73" length="3.37" width="3.33" shape="463.37,275.49 463.33,276.42 462.57,276.95 461.08,277.09"/>
    </edge>
    <edge id=":1517807736_5" function="internal">
        <lane id=":1517807736_5_0" index="0" disallow="pedestrian tram rail_urban rail rail_electric rail_fast ship container cable_car subway aircraft wheelchair scooter drone" speed="7.50" length="8.33" width="3.33" shape="462.53,287.28 462.49,284.80 461.96,282.76 460.96,281.17 459.49,280.02"/>
    </edge>
    <edge id=":1517807736_6" function="internal">
        <lane id=":1517807736_6_0" index="0" disallow="pedestrian tram rail_urban rail rail_electric rail_fast ship container cable_car subway aircraft wheelchair scooter drone" speed="7.26" length="15.15" width="3.33" shape="462.53,287.28 463.39,281.97 465.05,278.74 467.52,277.58 470.80,278.50"/>
    </edge>
    <edge id=":1517807752_0" function="internal">
        <lane id=":1517807752_0_0" index="0" disallow="tram rail_urban rail rail_electric rail_fast ship container cable_car subway aircraft wheelchair scooter drone" speed="8.29" length="11.53" shape="464.51,351.12 462.32,349.81 460.79,347.76 459.93,344.98 459.73,341.47"/>
    </edge>
    <edge id=":1517807752_1" function="internal">
        <lane id=":1517807752_1_0" index="0" disallow="tram rail_urban rail rail_electric rail_fast ship container cable_car subway aircraft wheelchair scooter drone" speed="13.89" length="13.17" shape="459.15,354.63 459.73,341.47"/>
    </edge>
    <edge id=":1517807767_0" function="internal">
        <lane id=":1517807767_0_0" index="0" disallow="tram rail_urban rail rail_electric rail_fast ship container cable_car subway aircraft wheelchair scooter drone" speed="13.89" length="15.40" shape="536.85,368.90 530.80,383.06"/>
        <lane id=":1517807767_0_1" index="1" disallow="tram rail_urban rail rail_electric rail_fast ship container cable_car subway aircraft wheelchair scooter drone" speed="13.89" length="15.40" shape="533.91,367.64 527.86,381.80"/>
    </edge>
    <edge id=":1517807767_2" function="internal">
        <lane id=":1517807767_2_0" index="0" disallow="tram rail_urban rail rail_electric rail_fast ship container cable_car subway aircraft wheelchair scooter drone" speed="8.47" length="2.43" shape="533.91,367.64 532.33,369.48"/>
    </edge>
    <edge id=":1517807767_3" function="internal">
        <lane id=":1517807767_3_0" index="0" disallow="tram rail_urban rail rail_electric rail_fast ship container cable_car subway aircraft wheelchair scooter drone" speed="3.65" length="1.44" shape="533.91,367.64 532.70,368.43"/>
    </edge>
    <edge id=":1517807767_8" function="internal">
        <lane id=":1517807767_8_0" index="0" disallow="tram rail_urban rail rail_electric rail_fast ship container cable_car subway aircraft wheelchair scooter drone" speed="8.47" length="13.05" shape="532.33,369.48 532.18,369.67 529.24,370.48 525.09,370.07 519.74,368.44"/>
    </edge>
    <edge id=":1517807767_9" function="internal">
        <lane id=":1517807767_9_0" index="0" disallow="tram rail_urban rail rail_electric rail_fast ship container cable_car subway aircraft wheelchair scooter drone" speed="3.65" length="3.23" shape="532.70,368.43 531.81,368.48 531.23,367.80 530.97,366.38"/>
    </edge>
    <edge id=":1517807767_4" function="internal">
        <lane id=":1517807767_4_0" index="0" disallow="tram rail_urban rail rail_electric rail_fast ship container cable_car subway aircraft wheelchair scooter drone" speed="6.66" length="9.83" shape="521.97,379.29 522.67,376.67 522.34,374.49 520.99,372.74 518.62,371.44"/>
    </edge>
    <edge id=":1517807767_5" function="internal">
        <lane id=":1517807767_5_0" index="0" disallow="tram rail_urban rail rail_electric rail_fast ship container cable_car subway aircraft wheelchair scooter drone" speed="13.89" length="15.40" shape="521.97,379.29 528.03,365.12"/>
        <lane id=":1517807767_5_1" index="1" disallow="tram rail_urban rail rail_electric rail_fast ship container cable_car subway aircraft wheelchair scooter drone" speed="13.89" length="15.40" shape="524.91,380.54 530.97,366.38"/>
    </edge>
    <edge id=":1517807767_7" function="internal">
        <lane id=":1517807767_7_0" index="0" disallow="tram rail_urban rail rail_electric rail_fast ship container cable_car subway aircraft wheelchair scooter drone" speed="3.65" length="1.44" shape="524.91,380.54 526.12,379.75"/>
    </edge>
    <edge id=":1517807767_10" function="internal">
        <lane id=":1517807767_10_0" index="0" disallow="tram rail_urban rail rail_electric rail_fast ship container cable_car subway aircraft wheelchair scooter drone" speed="3.65" length="3.23" shape="526.12,379.75 527.01,379.70 527.59,380.38 527.86,381.80"/>
    </edge>
    <edge id=":1586370783_0" function="internal">
        <lane id=":1586370783_0_0" index="0" disallow="pedestrian tram rail_urban rail rail_electric rail_fast ship container cable_car subway aircraft wheelchair scooter drone" speed="10.03" length="23.29" shape="544.75,312.57 550.66,316.31 554.03,320.64 554.87,325.58 553.16,331.12"/>
        <lane id=":1586370783_0_1" index="1" disallow="pedestrian tram rail_urban rail rail_electric rail_fast ship container cable_car subway aircraft wheelchair scooter drone" speed="8.86" length="17.94" shape="543.32,315.58 548.03,318.50 550.76,321.83 551.52,325.55 550.31,329.67"/>
    </edge>
    <edge id=":1586370783_2" function="internal">
        <lane id=":1586370783_2_0" index="0" disallow="pedestrian tram rail_urban rail rail_electric rail_fast ship container cable_car subway aircraft wheelchair scooter drone" speed="6.72" length="9.89" width="3.33" shape="544.61,326.77 545.49,324.18 545.33,321.96 544.13,320.09 541.88,318.59"/>
    </edge>
    <edge id=":1586370830_0" function="internal">
        <lane id=":1586370830_0_0" index="0" disallow="pedestrian tram rail_urban rail rail_electric rail_fast ship container cable_car subway aircraft wheelchair scooter drone" speed="8.33" length="2.79" width="5.00" shape="491.23,505.55 490.25,508.16"/>
    </edge>
    <edge id=":1586370831_0" function="internal">
        <lane id=":1586370831_0_0" index="0" disallow="tram rail_urban rail rail_electric rail_fast ship container cable_car subway aircraft wheelchair scooter drone" speed="13.89" length="10.24" shape="472.33,520.81 468.12,530.14"/>
        <lane id=":1586370831_0_1" index="1" disallow="tram rail_urban rail rail_electric rail_fast ship container cable_car subway aircraft wheelchair scooter drone" speed="13.89" length="10.24" shape="469.41,519.49 465.20,528.83"/>
    </edge>
    <edge id=":1586370831_2" function="internal">
        <lane id=":1586370831_2_0" index="0" disallow="tram rail_urban rail rail_electric rail_fast ship container cable_car subway aircraft wheelchair scooter drone" speed="7.50" length="2.82" shape="469.41,519.49 467.67,521.71"/>
    </edge>
    <edge id=":1586370831_3" function="internal">
        <lane id=":1586370831_3_0" index="0" disallow="tram rail_urban rail rail_electric rail_fast ship container cable_car subway aircraft wheelchair scooter drone" speed="3.65" length="1.44" shape="469.41,519.49 468.19,520.26"/>
    </edge>
    <edge id=":1586370831_8" function="internal">
        <lane id=":1586370831_8_0" index="0" disallow="tram rail_urban rail rail_electric rail_fast ship container cable_car subway aircraft wheelchair scooter drone" speed="7.50" length="11.92" shape="467.67,521.71 467.52,521.89 464.82,522.52 461.31,521.36 456.99,518.43"/>
    </edge>
    <edge id=":1586370831_9" function="internal">
        <lane id=":1586370831_9_0" index="0" disallow="tram rail_urban rail rail_electric rail_fast ship container cable_car subway aircraft wheelchair scooter drone" speed="3.65" length="3.23" shape="468.19,520.26 467.30,520.29 466.73,519.60 466.50,518.18"/>
    </edge>
    <edge id=":1586370831_4" function="internal">
        <lane id=":1586370831_4_0" index="0" disallow="tram rail_urban rail rail_electric rail_fast ship container cable_car subway aircraft wheelchair scooter drone" speed="7.11" length="8.82" shape="459.37,526.20 459.95,524.11 459.74,522.11 458.76,520.22 456.99,518.43"/>
    </edge>
    <edge id=":1586370831_5" function="internal">
        <lane id=":1586370831_5_0" index="0" disallow="tram rail_urban rail rail_electric rail_fast ship container cable_car subway aircraft wheelchair scooter drone" speed="13.89" length="10.24" shape="459.37,526.20 463.58,516.86"/>
        <lane id=":1586370831_5_1" index="1" disallow="tram rail_urban rail rail_electric rail_fast ship container cable_car subway aircraft wheelchair scooter drone" speed="13.89" length="10.24" shape="462.29,527.51 466.50,518.18"/>
    </edge>
    <edge id=":1586370831_7" function="internal">
        <lane id=":1586370831_7_0" index="0" disallow="tram rail_urban rail rail_electric rail_fast ship container cable_car subway aircraft wheelchair scooter drone" speed="3.65" length="1.44" shape="462.29,527.51 463.51,526.75"/>
    </edge>
    <edge id=":1586370831_10" function="internal">
        <lane id=":1586370831_10_0" index="0" disallow="tram rail_urban rail rail_electric rail_fast ship container cable_car subway aircraft wheelchair scooter drone" speed="3.65" length="3.23" shape="463.51,526.75 464.40,526.71 464.97,527.40 465.20,528.83"/>
    </edge>
    <edge id=":1600183684_0" function="internal">
        <lane id=":1600183684_0_0" index="0" disallow="tram rail_urban rail rail_electric rail_fast ship container cable_car subway aircraft wheelchair scooter drone" speed="3.65" length="4.67" shape="106.67,360.61 106.72,359.17 107.19,358.41 108.08,358.33 109.39,358.94"/>
    </edge>
    <edge id=":1600183702_0" function="internal">
        <lane id=":1600183702_0_0" index="0" disallow="tram rail_urban rail rail_electric rail_fast ship container cable_car subway aircraft wheelchair scooter drone" speed="6.81" length="9.22" shape="191.22,462.41 188.71,462.22 186.67,462.83 185.11,464.24 184.02,466.46"/>
    </edge>
    <edge id=":1600183702_1" function="internal">
        <lane id=":1600183702_1_0" index="0" disallow="tram rail_urban rail rail_electric rail_fast ship container cable_car subway aircraft wheelchair scooter drone" speed="7.65" length="11.64" shape="191.22,462.41 187.70,461.29 185.27,459.70 183.90,457.63 183.61,455.08"/>
    </edge>
    <edge id=":1600183702_2" function="internal">
        <lane id=":1600183702_2_0" index="0" disallow="tram rail_urban rail rail_electric rail_fast ship container cable_car subway aircraft wheelchair scooter drone" speed="8.33" length="11.16" shape="186.77,455.69 186.37,458.81 185.81,461.16 185.04,463.47 184.02,466.46"/>
    </edge>
    <edge id=":1600183702_3" function="internal">
        <lane id=":1600183702_3_0" index="0" disallow="tram rail_urban rail rail_electric rail_fast ship container cable_car subway aircraft wheelchair scooter drone" speed="3.66" length="4.70" shape="186.77,455.69 185.75,456.72 184.88,456.97 184.17,456.42 183.61,455.08"/>
    </edge>
    <edge id=":1600183702_4" function="internal">
        <lane id=":1600183702_4_0" index="0" disallow="tram rail_urban rail rail_electric rail_fast ship container cable_car subway aircraft wheelchair scooter drone" speed="8.33" length="10.76" shape="180.98,465.47 181.98,462.54 182.71,460.36 183.23,458.14 183.61,455.08"/>
    </edge>
    <edge id=":1600183702_5" function="internal">
        <lane id=":1600183702_5_0" index="0" disallow="tram rail_urban rail rail_electric rail_fast ship container cable_car subway aircraft wheelchair scooter drone" speed="3.65" length="4.67" shape="180.98,465.47 182.11,464.58 182.99,464.45 183.63,465.07 184.02,466.46"/>
    </edge>
    <edge id=":1600183703_0" function="internal">
        <lane id=":1600183703_0_0" index="0" disallow="tram rail_urban rail rail_electric rail_fast ship container cable_car subway aircraft wheelchair scooter drone" speed="8.33" length="10.82" shape="181.72,473.53 178.38,483.81"/>
    </edge>
    <edge id=":1600183703_1" function="internal">
        <lane id=":1600183703_1_0" index="0" disallow="tram rail_urban rail rail_electric rail_fast ship container cable_car subway aircraft wheelchair scooter drone" speed="3.65" length="4.67" shape="181.72,473.53 180.59,474.42 179.71,474.55 179.07,473.93 178.68,472.54"/>
    </edge>
    <edge id=":1600183703_2" function="internal">
        <lane id=":1600183703_2_0" index="0" disallow="tram rail_urban rail rail_electric rail_fast ship container cable_car subway aircraft wheelchair scooter drone" speed="6.62" length="9.83" shape="171.00,476.16 173.64,476.79 175.80,476.39 177.48,474.97 178.68,472.54"/>
    </edge>
    <edge id=":1600183703_3" function="internal">
        <lane id=":1600183703_3_0" index="0" disallow="tram rail_urban rail rail_electric rail_fast ship container cable_car subway aircraft wheelchair scooter drone" speed="7.46" length="11.60" shape="171.00,476.16 174.73,477.93 177.21,479.80 178.42,481.76 178.38,483.81"/>
    </edge>
    <edge id=":1600183703_4" function="internal">
        <lane id=":1600183703_4_0" index="0" disallow="tram rail_urban rail rail_electric rail_fast ship container cable_car subway aircraft wheelchair scooter drone" speed="8.33" length="10.82" shape="175.33,482.83 178.68,472.54"/>
    </edge>
    <edge id=":1600183703_5" function="internal">
        <lane id=":1600183703_5_0" index="0" disallow="tram rail_urban rail rail_electric rail_fast ship container cable_car subway aircraft wheelchair scooter drone" speed="3.65" length="4.67" shape="175.33,482.83 176.46,481.93 177.35,481.80 177.98,482.43 178.38,483.81"/>
    </edge>
    <edge id=":1600183706_0" function="internal">
        <lane id=":1600183706_0_0" index="0" disallow="tram rail_urban rail rail_electric rail_fast ship container cable_car subway aircraft wheelchair scooter drone" speed="8.87" length="11.25" shape="158.71,565.69 160.34,569.20 162.04,571.76 163.79,573.37 165.61,574.02"/>
        <lane id=":1600183706_0_1" index="1" disallow="tram rail_urban rail rail_electric rail_fast ship container cable_car subway aircraft wheelchair scooter drone" speed="10.08" length="14.73" shape="155.74,566.89 157.81,571.20 160.10,574.36 162.60,576.36 165.31,577.20"/>
    </edge>
    <edge id=":1600183706_2" function="internal">
        <lane id=":1600183706_2_0" index="0" disallow="tram rail_urban rail rail_electric rail_fast ship container cable_car subway aircraft wheelchair scooter drone" speed="13.89" length="13.39" shape="152.44,571.46 156.39,571.94 159.03,572.65 161.68,573.41 165.61,574.02"/>
        <lane id=":1600183706_2_1" index="1" disallow="tram rail_urban rail rail_electric rail_fast ship container cable_car subway aircraft wheelchair scooter drone" speed="13.89" length="13.39" shape="152.25,574.65 156.16,575.13 158.79,575.84 161.41,576.60 165.31,577.20"/>
    </edge>
    <edge id=":1966483074_0" function="internal">
        <lane id=":1966483074_0_0" index="0" disallow="tram rail_urban rail rail_electric rail_fast ship container cable_car subway aircraft wheelchair scooter drone" speed="8.33" length="14.62" shape="177.19,415.33 174.72,412.63 171.91,410.37 168.90,408.31 165.85,406.20"/>
    </edge>
    <edge id=":1966483074_1" function="internal">
        <lane id=":1966483074_1_0" index="0" disallow="tram rail_urban rail rail_electric rail_fast ship container cable_car subway aircraft wheelchair scooter drone" speed="8.33" length="14.22" shape="177.19,415.33 175.20,411.94 174.30,408.59 174.49,405.28 175.78,402.02"/>
    </edge>
    <edge id=":1966483074_2" function="internal">
        <lane id=":1966483074_2_0" index="0" disallow="tram rail_urban rail rail_electric rail_fast ship container cable_car subway aircraft wheelchair scooter drone" speed="3.75" length="4.70" shape="177.19,415.33 176.83,413.92 177.07,413.06 177.91,412.73 179.34,412.94"/>
    </edge>
    <edge id=":1966483074_3" function="internal">
        <lane id=":1966483074_3_0" index="0" disallow="tram rail_urban rail rail_electric rail_fast ship container cable_car subway aircraft wheelchair scooter drone" speed="7.31" length="9.72" shape="178.27,404.12 177.24,406.62 177.07,408.93 177.77,411.03 179.34,412.94"/>
    </edge>
    <edge id=":1966483074_4" function="internal">