<?xml version="1.0" encoding="UTF-8"?>

<!-- generated on 2025-10-05 00:00:49 by Eclipse SUMO GUI Version 1.24.0
<sumoConfiguration xmlns:xsi="http://www.w3.org/2001/XMLSchema-instance" xsi:noNamespaceSchemaLocation="http://sumo.dlr.de/xsd/sumoConfiguration.xsd">

    <input>
        <net-file value="/Users/nicoloagostara/Sumo/2025-10-05-00-00-42/osm.net.xml.gz"/>
        <route-files value="/Users/nicoloagostara/Sumo/2025-10-05-00-00-42/osm.passenger.trips.xml"/>
        <additional-files value="/Users/nicoloagostara/Sumo/2025-10-05-00-00-42/output.add.xml"/>
    </input>

    <output>
        <tripinfo-output value="/Users/nicoloagostara/Sumo/2025-10-05-00-00-42/tripinfos.xml"/>
        <statistic-output value="/Users/nicoloagostara/Sumo/2025-10-05-00-00-42/stats.xml"/>
    </output>

    <processing>
        <ignore-route-errors value="true"/>
        <tls.actuated.jam-threshold value="30"/>
    </processing>

    <routing>
        <device.rerouting.adaptation-steps value="18"/>
        <device.rerouting.adaptation-interval value="10"/>
    </routing>

    <report>
        <verbose value="true"/>
        <duration-log.statistics value="true"/>
        <no-step-log value="true"/>
    </report>

    <gui_only>
        <gui-settings-file value="/Users/nicoloagostara/Sumo/2025-10-05-00-00-42/osm.view.xml"/>
    </gui_only>

</sumoConfiguration>
