<?xml version="1.0" encoding="UTF-8"?>

<!-- generated on 2025-10-05 00:00:47 by Eclipse SUMO netconvert Version 1.24.0
<netconvertConfiguration xmlns:xsi="http://www.w3.org/2001/XMLSchema-instance" xsi:noNamespaceSchemaLocation="http://sumo.dlr.de/xsd/netconvertConfiguration.xsd">

    <input>
        <type-files value="${SUMO_HOME}/data/typemap/osmNetconvert.typ.xml"/>
        <osm-files value="osm_bbox.osm.xml.gz"/>
    </input>

    <output>
        <output-file value="osm.net.xml.gz"/>
        <output.street-names value="true"/>
        <output.original-names value="true"/>
    </output>

    <projection>
        <proj.utm value="true"/>
    </projection>

    <processing>
        <geometry.remove value="true"/>
        <roundabouts.guess value="true"/>
    </processing>

    <tls_building>
        <tls.discard-simple value="true"/>
        <tls.join value="true"/>
        <tls.guess-signals value="true"/>
        <tls.default-type value="actuated"/>
    </tls_building>

    <ramp_guessing>
        <ramps.guess value="true"/>
    </ramp_guessing>

    <junctions>
        <junctions.join value="true"/>
        <junctions.corner-detail value="5"/>
    </junctions>

</netconvertConfiguration>
-->

<net version="1.20" junctionCornerDetail="5" limitTurnSpeed="5.50" xmlns:xsi="http://www.w3.org/2001/XMLSchema-instance" xsi:noNamespaceSchemaLocation="http://sumo.dlr.de/xsd/net_file.xsd">

    <location netOffset="-464782.87,-5245985.75" convBoundary="0.00,0.00,1712.90,4753.59" origBoundary="8.533408,47.366441,8.556134,47.409182" projParameter="+proj=utm +zone=32 +ellps=WGS84 +datum=WGS84 +units=m +no_defs"/>

    <type id="highway.living_street" priority="2" numLanes="1" speed="2.78" disallow="tram rail_urban rail rail_electric rail_fast ship container cable_car subway aircraft wheelchair scooter drone" oneway="0"/>
    <type id="highway.primary" priority="12" numLanes="2" speed="27.78" disallow="tram rail_urban rail rail_electric rail_fast ship container cable_car subway aircraft wheelchair scooter drone" oneway="0"/>
    <type id="highway.residential" priority="3" numLanes="1" speed="13.89" disallow="tram rail_urban rail rail_electric rail_fast ship container cable_car subway aircraft wheelchair scooter drone" oneway="0"/>
    <type id="highway.service" priority="1" numLanes="1" speed="5.56" allow="pedestrian delivery bicycle" oneway="0"/>
    <type id="highway.tertiary" priority="10" numLanes="1" speed="22.22" disallow="tram rail_urban rail rail_electric rail_fast ship container cable_car subway aircraft wheelchair scooter drone" oneway="0"/>
    <type id="highway.unclassified" priority="4" numLanes="1" speed="13.89" disallow="tram rail_urban rail rail_electric rail_fast ship container cable_car subway aircraft wheelchair scooter drone" oneway="0"/>

    <edge id=":10066996012_0" function="internal">
        <lane id=":10066996012_0_0" index="0" disallow="pedestrian tram rail_urban rail rail_electric rail_fast ship container cable_car subway aircraft wheelchair scooter drone" speed="6.18" length="0.68" shape="199.19,812.36 198.77,811.83"/>
    </edge>
    <edge id=":10066996012_1" function="internal">
        <lane id=":10066996012_1_0" index="0" disallow="pedestrian tram rail_urban rail rail_electric rail_fast ship container cable_car subway aircraft wheelchair scooter drone" speed="3.65" length="0.67" shape="199.19,812.36 198.94,811.74"/>
    </edge>
    <edge id=":10066996012_4" function="internal">
        <lane id=":10066996012_4_0" index="0" disallow="pedestrian tram rail_urban rail rail_electric rail_fast ship container cable_car subway aircraft wheelchair scooter drone" speed="6.18" length="6.84" shape="198.77,811.83 198.40,811.36 198.25,809.88 198.76,807.91 199.92,805.44"/>
    </edge>
    <edge id=":10066996012_5" function="internal">
        <lane id=":10066996012_5_0" index="0" disallow="pedestrian tram rail_urban rail rail_electric rail_fast ship container cable_car subway aircraft wheelchair scooter drone" speed="3.65" length="4.01" shape="198.94,811.74 198.64,811.03 198.75,810.14 199.52,809.69 200.96,809.69"/>
    </edge>
    <edge id=":10066996012_2" function="internal">
        <lane id=":10066996012_2_0" index="0" disallow="pedestrian tram rail_urban rail rail_electric rail_fast ship container cable_car subway aircraft wheelchair scooter drone" speed="13.89" length="9.12" shape="194.77,812.90 196.61,810.94 197.72,809.45 198.64,807.83 199.92,805.44"/>
    </edge>
    <edge id=":10066996012_3" function="internal">
        <lane id=":10066996012_3_0" index="0" disallow="pedestrian tram rail_urban rail rail_electric rail_fast ship container cable_car subway aircraft wheelchair scooter drone" speed="6.39" length="7.37" shape="194.77,812.90 196.80,811.04 198.51,809.89 199.90,809.44 200.96,809.69"/>
    </edge>
    <edge id=":10188076147_0" function="internal">
        <lane id=":10188076147_0_0" index="0" allow="pedestrian delivery bicycle" speed="3.65" length="4.67" shape="163.71,230.46 165.00,231.12 165.49,231.87 165.19,232.71 164.09,233.64"/>
    </edge>
    <edge id=":10188076148_0" function="internal">
        <lane id=":10188076148_0_0" index="0" allow="pedestrian delivery bicycle" speed="5.56" length="10.39" shape="147.49,238.75 146.49,235.90 146.16,233.79 146.29,231.61 146.66,228.58"/>
    </edge>
    <edge id=":10188076148_1" function="internal">
        <lane id=":10188076148_1_0" index="0" allow="pedestrian delivery bicycle" speed="5.56" length="10.88" shape="147.49,238.75 146.91,236.02 147.63,233.94 149.65,232.50 152.97,231.72"/>
    </edge>
    <edge id=":10188076148_2" function="internal">
        <lane id=":10188076148_2_0" index="0" allow="pedestrian delivery bicycle" speed="3.69" length="4.82" shape="147.49,238.75 148.14,237.41 148.90,236.89 149.78,237.18 150.76,238.30"/>
    </edge>
    <edge id=":10188076148_3" function="internal">
        <lane id=":10188076148_3_0" index="0" allow="pedestrian delivery bicycle" speed="4.75" length="5.22" shape="153.34,234.90 151.77,235.27 150.81,235.97 150.48,236.98 150.76,238.30"/>
    </edge>
    <edge id=":10188076148_4" function="internal">
        <lane id=":10188076148_4_0" index="0" allow="pedestrian delivery bicycle" speed="5.56" length="11.15" shape="153.34,234.90 150.11,234.83 147.92,233.76 146.77,231.67 146.66,228.58"/>
    </edge>
    <edge id=":10188076148_5" function="internal">
        <lane id=":10188076148_5_0" index="0" allow="pedestrian delivery bicycle" speed="3.65" length="4.67" shape="153.34,234.90 152.06,234.24 151.57,233.49 151.87,232.65 152.97,231.72"/>
    </edge>
    <edge id=":10188076148_6" function="internal">
        <lane id=":10188076148_6_0" index="0" allow="pedestrian delivery bicycle" speed="4.80" length="5.22" shape="149.87,228.74 149.91,230.19 150.45,231.18 151.47,231.68 152.97,231.72"/>
    </edge>
    <edge id=":10188076148_7" function="internal">
        <lane id=":10188076148_7_0" index="0" allow="pedestrian delivery bicycle" speed="5.56" length="9.79" shape="149.87,228.74 149.52,231.62 149.43,233.64 149.79,235.60 150.76,238.30"/>
    </edge>
    <edge id=":10188076148_8" function="internal">
        <lane id=":10188076148_8_0" index="0" allow="pedestrian delivery bicycle" speed="3.65" length="4.68" shape="149.87,228.74 149.01,229.90 148.19,230.26 147.41,229.82 146.66,228.58"/>
    </edge>
    <edge id=":10188076149_0" function="internal">
        <lane id=":10188076149_0_0" index="0" allow="pedestrian delivery bicycle" speed="3.65" length="4.67" shape="165.50,241.05 166.78,241.70 167.27,242.45 166.96,243.29 165.86,244.22"/>
    </edge>
    <edge id=":10188076159_0" function="internal">
        <lane id=":10188076159_0_0" index="0" allow="delivery bicycle" speed="6.05" length="7.85" shape="127.86,210.08 126.61,209.31 125.99,207.90 126.00,205.84 126.65,203.14"/>
    </edge>
    <edge id=":10188076159_1" function="internal">
        <lane id=":10188076159_1_0" index="0" allow="pedestrian delivery bicycle" speed="3.65" length="4.67" shape="127.86,210.08 126.93,208.98 126.76,208.10 127.36,207.44 128.73,207.00"/>
    </edge>
    <edge id=":10188076159_2" function="internal">
        <lane id=":10188076159_2_0" index="0" disallow="pedestrian tram rail_urban rail rail_electric rail_fast ship container cable_car subway aircraft wheelchair scooter drone" speed="8.33" length="9.40" shape="123.80,212.10 126.65,203.14"/>
    </edge>
    <edge id=":10188076159_3" function="internal">
        <lane id=":10188076159_3_0" index="0" allow="delivery bicycle" speed="6.17" length="7.81" shape="123.80,212.10 124.82,209.55 125.98,207.84 127.28,207.00 128.73,207.00"/>
    </edge>
    <edge id=":10188076160_0" function="internal">
        <lane id=":10188076160_0_0" index="0" allow="pedestrian delivery bicycle" speed="3.65" length="4.67" shape="169.32,248.45 168.03,247.80 167.54,247.06 167.83,246.22 168.92,245.27"/>
    </edge>
    <edge id=":10188076166_0" function="internal">
        <lane id=":10188076166_0_0" index="0" allow="pedestrian delivery bicycle" speed="5.56" length="9.48" shape="194.56,270.18 185.15,271.35"/>
    </edge>
    <edge id=":10188076166_1" function="internal">
        <lane id=":10188076166_1_0" index="0" allow="pedestrian delivery bicycle" speed="5.56" length="10.28" shape="194.56,270.18 192.02,270.09 189.94,269.11 188.32,267.25 187.16,264.52"/>
    </edge>
    <edge id=":10188076166_2" function="internal">
        <lane id=":10188076166_2_0" index="0" allow="pedestrian delivery bicycle" speed="3.65" length="4.67" shape="194.56,270.18 193.27,269.54 192.77,268.79 193.07,267.95 194.16,267.01"/>
    </edge>
    <edge id=":10188076166_3" function="internal">
        <lane id=":10188076166_3_0" index="0" allow="pedestrian delivery bicycle" speed="5.56" length="5.71" shape="190.23,263.62 190.88,265.23 191.76,266.34 192.85,266.93 194.16,267.01"/>
    </edge>
    <edge id=":10188076166_4" function="internal">
        <lane id=":10188076166_4_0" index="0" allow="pedestrian delivery bicycle" speed="5.56" length="10.99" shape="190.23,263.62 190.66,266.67 189.96,268.98 188.12,270.54 185.15,271.35"/>
    </edge>
    <edge id=":10188076166_5" function="internal">
        <lane id=":10188076166_5_0" index="0" allow="pedestrian delivery bicycle" speed="3.65" length="4.67" shape="190.23,263.62 189.80,265.00 189.14,265.60 188.26,265.44 187.16,264.52"/>
    </edge>
    <edge id=":10188076166_6" function="internal">
        <lane id=":10188076166_6_0" index="0" allow="pedestrian delivery bicycle" speed="4.88" length="5.20" shape="184.75,268.18 186.16,267.79 187.03,267.05 187.36,265.96 187.16,264.52"/>
    </edge>
    <edge id=":10188076166_7" function="internal">
        <lane id=":10188076166_7_0" index="0" allow="pedestrian delivery bicycle" speed="5.56" length="9.48" shape="184.75,268.18 194.16,267.01"/>
    </edge>
    <edge id=":10188076166_8" function="internal">
        <lane id=":10188076166_8_0" index="0" allow="pedestrian delivery bicycle" speed="3.65" length="4.67" shape="184.75,268.18 186.04,268.82 186.54,269.57 186.24,270.41 185.15,271.35"/>
    </edge>
    <edge id=":10188076167_0" function="internal">
        <lane id=":10188076167_0_0" index="0" allow="pedestrian delivery bicycle" speed="3.65" length="4.67" shape="211.27,246.84 211.92,245.55 212.67,245.06 213.51,245.36 214.45,246.45"/>
    </edge>
    <edge id=":10188076169_0" function="internal">
        <lane id=":10188076169_0_0" index="0" allow="pedestrian delivery bicycle" speed="3.65" length="4.67" shape="232.58,243.76 232.73,245.19 232.37,246.01 231.50,246.21 230.11,245.80"/>
    </edge>
    <edge id=":10188076170_0" function="internal">
        <lane id=":10188076170_0_0" index="0" allow="pedestrian delivery bicycle" speed="3.65" length="4.67" shape="196.16,231.83 195.79,233.23 195.16,233.86 194.28,233.74 193.13,232.86"/>
    </edge>
    <edge id=":10188076171_0" function="internal">
        <lane id=":10188076171_0_0" index="0" allow="pedestrian delivery bicycle" speed="3.65" length="4.67" shape="169.47,216.04 168.45,215.03 168.20,214.17 168.75,213.46 170.08,212.90"/>
    </edge>
    <edge id=":10188076173_0" function="internal">
        <lane id=":10188076173_0_0" index="0" allow="pedestrian delivery bicycle" speed="5.56" length="9.01" shape="191.56,228.23 190.40,225.19 189.26,222.91 188.15,221.40 187.05,220.65"/>
    </edge>
    <edge id=":10188076173_1" function="internal">
        <lane id=":10188076173_1_0" index="0" allow="pedestrian delivery bicycle" speed="5.56" length="14.67" shape="191.56,228.23 190.63,223.78 191.50,221.13 194.15,220.28 198.60,221.22"/>
    </edge>
    <edge id=":10188076173_2" function="internal">
        <lane id=":10188076173_2_0" index="0" allow="pedestrian delivery bicycle" speed="3.65" length="4.67" shape="191.56,228.23 191.93,226.84 192.56,226.20 193.44,226.32 194.59,227.20"/>
    </edge>
    <edge id=":10188076173_3" function="internal">
        <lane id=":10188076173_3_0" index="0" allow="pedestrian delivery bicycle" speed="4.66" length="6.19" shape="197.56,224.24 195.68,223.85 194.56,224.21 194.19,225.33 194.59,227.20"/>
    </edge>
    <edge id=":10188076173_4" function="internal">
        <lane id=":10188076173_4_0" index="0" allow="pedestrian delivery bicycle" speed="5.56" length="11.10" shape="197.56,224.24 187.05,220.65"/>
    </edge>
    <edge id=":10188076173_5" function="internal">
        <lane id=":10188076173_5_0" index="0" allow="pedestrian delivery bicycle" speed="3.65" length="4.67" shape="197.56,224.24 196.68,223.10 196.56,222.21 197.20,221.58 198.60,221.22"/>
    </edge>
    <edge id=":10188076173_6" function="internal">
        <lane id=":10188076173_6_0" index="0" allow="pedestrian delivery bicycle" speed="5.56" length="11.13" shape="188.07,217.62 198.60,221.22"/>
    </edge>
    <edge id=":10188076173_7" function="internal">
        <lane id=":10188076173_7_0" index="0" allow="pedestrian delivery bicycle" speed="5.56" length="11.91" shape="188.07,217.62 189.85,218.68 191.53,220.63 193.11,223.47 194.59,227.20"/>
    </edge>
    <edge id=":10188076173_8" function="internal">
        <lane id=":10188076173_8_0" index="0" allow="pedestrian delivery bicycle" speed="3.65" length="4.67" shape="188.07,217.62 188.95,218.76 189.08,219.64 188.44,220.27 187.05,220.65"/>
    </edge>
    <edge id=":10188076176_0" function="internal">
        <lane id=":10188076176_0_0" index="0" allow="pedestrian delivery bicycle" speed="5.56" length="8.04" shape="227.35,242.45 225.84,240.61 224.73,239.40 223.47,238.35 221.50,237.03"/>
    </edge>
    <edge id=":10188076176_1" function="internal">
        <lane id=":10188076176_1_0" index="0" allow="pedestrian delivery bicycle" speed="5.56" length="10.36" shape="227.35,242.45 225.87,240.02 225.55,237.71 226.39,235.55 228.39,233.51"/>
    </edge>
    <edge id=":10188076176_2" function="internal">
        <lane id=":10188076176_2_0" index="0" allow="pedestrian delivery bicycle" speed="3.65" length="4.67" shape="227.35,242.45 227.21,241.02 227.57,240.20 228.44,240.00 229.82,240.42"/>
    </edge>
    <edge id=":10188076176_3" function="internal">
        <lane id=":10188076176_3_0" index="0" allow="pedestrian delivery bicycle" speed="5.00" length="5.05" shape="230.33,236.06 229.35,237.05 228.94,238.11 229.10,239.23 229.82,240.42"/>
    </edge>
    <edge id=":10188076176_4" function="internal">
        <lane id=":10188076176_4_0" index="0" allow="pedestrian delivery bicycle" speed="5.56" length="9.51" shape="230.33,236.06 228.00,237.47 225.75,238.10 223.59,237.96 221.50,237.03"/>
    </edge>
    <edge id=":10188076176_5" function="internal">
        <lane id=":10188076176_5_0" index="0" allow="pedestrian delivery bicycle" speed="3.65" length="4.67" shape="230.33,236.06 228.89,236.15 228.08,235.76 227.92,234.88 228.39,233.51"/>
    </edge>
    <edge id=":10188076176_6" function="internal">
        <lane id=":10188076176_6_0" index="0" allow="pedestrian delivery bicycle" speed="5.56" length="5.58" shape="223.23,234.34 224.38,234.82 225.62,234.84 226.96,234.41 228.39,233.51"/>
    </edge>
    <edge id=":10188076176_7" function="internal">
        <lane id=":10188076176_7_0" index="0" allow="pedestrian delivery bicycle" speed="5.56" length="9.03" shape="223.23,234.34 225.45,235.83 226.87,236.99 228.12,238.35 229.82,240.42"/>
    </edge>
    <edge id=":10188076176_8" function="internal">
        <lane id=":10188076176_8_0" index="0" allow="pedestrian delivery bicycle" speed="3.65" length="4.67" shape="223.23,234.34 223.81,235.66 223.71,236.55 222.94,237.01 221.50,237.03"/>
    </edge>
    <edge id=":10188328896_0" function="internal">
        <lane id=":10188328896_0_0" index="0" allow="pedestrian delivery bicycle" speed="3.65" length="4.67" shape="299.31,288.42 300.74,288.21 301.57,288.54 301.80,289.41 301.44,290.80"/>
    </edge>
    <edge id=":10188328899_0" function="internal">
        <lane id=":10188328899_0_0" index="0" disallow="pedestrian tram rail_urban rail rail_electric rail_fast ship container cable_car subway aircraft wheelchair scooter drone" speed="13.89" length="9.41" shape="316.46,312.43 309.48,318.74"/>
    </edge>
    <edge id=":10188328899_1" function="internal">
        <lane id=":10188328899_1_0" index="0" allow="delivery bicycle" speed="6.94" length="3.21" shape="316.46,312.43 314.18,313.96 313.72,314.04"/>
    </edge>
    <edge id=":10188328899_7" function="internal">
        <lane id=":10188328899_7_0" index="0" allow="delivery bicycle" speed="6.94" length="6.96" shape="313.72,314.04 311.93,314.39 309.70,313.73 307.49,311.98"/>
    </edge>
    <edge id=":10188328899_2" function="internal">
        <lane id=":10188328899_2_0" index="0" allow="delivery bicycle" speed="5.14" length="5.12" shape="309.80,309.77 310.92,310.66 312.05,311.01 313.18,310.81 314.31,310.06"/>
    </edge>
    <edge id=":10188328899_3" function="internal">
        <lane id=":10188328899_3_0" index="0" allow="delivery bicycle" speed="6.84" length="10.31" shape="309.80,309.77 311.45,312.07 311.95,314.34 311.29,316.56 309.48,318.74"/>
    </edge>
    <edge id=":10188328899_4" function="internal">
        <lane id=":10188328899_4_0" index="0" allow="pedestrian delivery bicycle" speed="3.65" length="4.67" shape="309.80,309.77 310.05,311.19 309.75,312.03 308.90,312.30 307.49,311.98"/>
    </edge>
    <edge id=":10188328899_5" function="internal">
        <lane id=":10188328899_5_0" index="0" allow="delivery bicycle" speed="5.01" length="5.04" shape="307.33,316.37 308.22,315.30 308.54,314.22 308.30,313.11 307.49,311.98"/>
    </edge>
    <edge id=":10188328899_6" function="internal">
        <lane id=":10188328899_6_0" index="0" disallow="pedestrian tram rail_urban rail rail_electric rail_fast ship container cable_car subway aircraft wheelchair scooter drone" speed="13.89" length="9.40" shape="307.33,316.37 314.31,310.06"/>
    </edge>
    <edge id=":10188332438_0" function="internal">
        <lane id=":10188332438_0_0" index="0" allow="pedestrian delivery bicycle" speed="3.65" length="4.67" shape="237.85,316.99 237.41,315.62 237.59,314.74 238.41,314.36 239.84,314.49"/>
    </edge>
    <edge id=":10188332439_0" function="internal">
        <lane id=":10188332439_0_0" index="0" allow="pedestrian delivery bicycle" speed="3.65" length="4.67" shape="270.99,316.40 269.55,316.54 268.74,316.18 268.54,315.31 268.95,313.93"/>
    </edge>
    <edge id=":10261768647_0" function="internal">
        <lane id=":10261768647_0_0" index="0" allow="pedestrian delivery bicycle" speed="3.65" length="4.67" shape="318.16,1233.79 318.27,1235.23 317.88,1236.04 317.01,1236.22 315.64,1235.77"/>
    </edge>
    <edge id=":10261768650_0" function="internal">
        <lane id=":10261768650_0_0" index="0" disallow="tram rail_urban rail rail_electric rail_fast ship container cable_car subway aircraft wheelchair scooter drone" speed="5.56" length="4.47" shape="306.47,1209.70 306.44,1214.18"/>
    </edge>
    <edge id=":10261768650_1" function="internal">
        <lane id=":10261768650_1_0" index="0" disallow="tram rail_urban rail rail_electric rail_fast ship container cable_car subway aircraft wheelchair scooter drone" speed="3.65" length="4.67" shape="306.47,1209.70 307.27,1210.90 307.34,1211.79 306.66,1212.38 305.25,1212.66"/>
    </edge>
    <edge id=":10261803088_0" function="internal">
        <lane id=":10261803088_0_0" index="0" allow="pedestrian delivery bicycle" speed="5.56" length="12.23" shape="301.22,1217.39 299.37,1214.65 298.08,1212.16 296.80,1209.66 294.98,1206.90"/>
    </edge>
    <edge id=":10261803088_1" function="internal">
        <lane id=":10261803088_1_0" index="0" allow="pedestrian delivery bicycle" speed="5.56" length="20.32" shape="301.22,1217.39 297.26,1211.45 296.79,1208.18 299.79,1207.57 306.28,1209.63"/>
    </edge>
    <edge id=":10261803088_2" function="internal">
        <lane id=":10261803088_2_0" index="0" allow="pedestrian delivery bicycle" speed="3.69" length="4.83" shape="301.22,1217.39 301.48,1215.92 302.08,1215.21 303.00,1215.26 304.25,1216.07"/>
    </edge>
    <edge id=":10261803088_3" function="internal">
        <lane id=":10261803088_3_0" index="0" allow="pedestrian delivery bicycle" speed="4.61" length="7.23" shape="305.06,1212.59 303.05,1212.00 302.25,1212.38 302.65,1213.74 304.25,1216.07"/>
    </edge>
    <edge id=":10261803088_4" function="internal">
        <lane id=":10261803088_4_0" index="0" disallow="tram rail_urban rail rail_electric rail_fast ship container cable_car subway aircraft wheelchair scooter drone" speed="5.56" length="11.79" shape="305.06,1212.59 301.96,1211.45 299.42,1210.52 297.18,1209.20 294.98,1206.90"/>
    </edge>
    <edge id=":10261803088_5" function="internal">
        <lane id=":10261803088_5_0" index="0" disallow="tram rail_urban rail rail_electric rail_fast ship container cable_car subway aircraft wheelchair scooter drone" speed="5.56" length="10.16" shape="297.53,1204.96 299.52,1207.09 301.31,1208.07 303.40,1208.66 306.28,1209.63"/>
    </edge>
    <edge id=":10261803088_6" function="internal">
        <lane id=":10261803088_6_0" index="0" allow="pedestrian delivery bicycle" speed="5.56" length="12.99" shape="297.53,1204.96 299.42,1207.83 300.87,1210.53 302.33,1213.23 304.25,1216.07"/>
    </edge>
    <edge id=":1027163117_0" function="internal">
        <lane id=":1027163117_0_0" index="0" disallow="pedestrian tram rail_urban rail rail_electric rail_fast ship container cable_car subway aircraft wheelchair scooter drone" speed="13.89" length="1.16" shape="613.74,1333.18 614.40,1332.22"/>
    </edge>
    <edge id=":1037539521_0" function="internal">
        <lane id=":1037539521_0_0" index="0" allow="pedestrian delivery bicycle" speed="3.65" length="4.67" shape="402.97,632.56 401.89,633.52 401.01,633.71 400.34,633.12 399.87,631.76"/>
    </edge>
    <edge id=":1041912615_0" function="internal">
        <lane id=":1041912615_0_0" index="0" disallow="tram rail_urban rail rail_electric rail_fast ship container cable_car subway aircraft wheelchair scooter drone" speed="5.93" length="7.34" shape="454.12,423.52 453.08,425.54 452.80,427.29 453.29,428.76 454.55,429.97"/>
    </edge>
    <edge id=":1041912615_1" function="internal">
        <lane id=":1041912615_1_0" index="0" allow="pedestrian delivery bicycle" speed="7.38" length="8.36" shape="454.12,423.52 452.20,426.30 450.64,428.25 449.47,429.38 448.66,429.67"/>
    </edge>
    <edge id=":1041912615_2" function="internal">
        <lane id=":1041912615_2_0" index="0" allow="pedestrian delivery bicycle" speed="9.72" length="6.40" shape="449.28,426.53 451.03,427.08 452.08,427.83 453.05,428.79 454.55,429.97"/>
    </edge>
    <edge id=":1041912615_3" function="internal">
        <lane id=":1041912615_3_0" index="0" allow="pedestrian delivery bicycle" speed="3.65" length="4.67" shape="449.28,426.53 450.30,427.55 450.54,428.41 449.99,429.12 448.66,429.67"/>
    </edge>
    <edge id=":1042029281_0" function="internal">
        <lane id=":1042029281_0_0" index="0" disallow="pedestrian tram rail_urban rail rail_electric rail_fast ship container cable_car subway aircraft wheelchair scooter drone" speed="8.33" length="9.87" shape="367.68,328.48 365.46,326.61 363.38,326.00 361.25,325.43 358.87,323.68"/>
        <lane id=":1042029281_0_1" index="1" disallow="pedestrian tram rail_urban rail rail_electric rail_fast ship container cable_car subway aircraft wheelchair scooter drone" speed="8.33" length="9.87" shape="367.68,328.48 361.21,321.50"/>
    </edge>
    <edge id=":1042029281_2" function="internal">
        <lane id=":1042029281_2_0" index="0" allow="delivery bicycle" speed="6.95" length="2.95" shape="367.68,328.48 366.27,326.15 366.23,325.93"/>
    </edge>
    <edge id=":1042029281_9" function="internal">
        <lane id=":1042029281_9_0" index="0" allow="delivery bicycle" speed="6.95" length="7.24" shape="366.23,325.93 365.85,323.84 366.40,321.54 367.94,319.26"/>
    </edge>
    <edge id=":1042029281_3" function="internal">
        <lane id=":1042029281_3_0" index="0" allow="delivery bicycle" speed="5.49" length="5.36" shape="370.33,321.39 369.47,322.64 369.12,323.86 369.29,325.06 369.98,326.24"/>
    </edge>
    <edge id=":1042029281_4" function="internal">
        <lane id=":1042029281_4_0" index="0" allow="delivery bicycle" speed="6.79" length="10.62" shape="370.33,321.39 368.07,323.29 365.80,323.94 363.51,323.34 361.21,321.50"/>
    </edge>
    <edge id=":1042029281_5" function="internal">
        <lane id=":1042029281_5_0" index="0" allow="pedestrian delivery bicycle" speed="3.65" length="4.67" shape="370.33,321.39 368.93,321.76 368.07,321.52 367.74,320.69 367.94,319.26"/>
    </edge>
    <edge id=":1042029281_6" function="internal">
        <lane id=":1042029281_6_0" index="0" allow="bicycle" speed="4.95" length="5.11" shape="363.55,319.31 364.66,320.20 365.76,320.49 366.85,320.18 367.94,319.26"/>
    </edge>
    <edge id=":1042029281_7" function="internal">
        <lane id=":1042029281_7_0" index="0" allow="bus bicycle" speed="8.33" length="9.45" shape="363.55,319.31 369.98,326.24"/>
    </edge>
    <edge id=":1042029281_8" function="internal">
        <lane id=":1042029281_8_0" index="0" allow="bus bicycle" speed="3.65" length="1.44" shape="363.55,319.31 363.79,320.74"/>
    </edge>
    <edge id=":1042029281_10" function="internal">
        <lane id=":1042029281_10_0" index="0" allow="bus bicycle" speed="3.65" length="3.23" shape="363.79,320.74 363.47,321.57 362.62,321.83 361.21,321.50"/>
    </edge>
    <edge id=":105515992_0" function="internal">
        <lane id=":105515992_0_0" index="0" disallow="pedestrian tram rail_urban rail rail_electric rail_fast ship container cable_car subway aircraft wheelchair scooter drone" speed="6.50" length="8.16" width="3.00" shape="1066.99,701.96 1064.82,701.88 1063.05,702.50 1061.70,703.82 1060.76,705.84"/>
    </edge>
    <edge id=":105515992_1" function="internal">
        <lane id=":105515992_1_0" index="0" disallow="pedestrian tram rail_urban rail rail_electric rail_fast ship container cable_car subway aircraft wheelchair scooter drone" speed="13.89" length="9.50" width="3.00" shape="1062.49,696.16 1062.31,699.08 1062.07,701.08 1061.61,703.03 1060.76,705.84"/>
        <lane id=":105515992_1_1" index="1" disallow="pedestrian tram rail_urban rail rail_electric rail_fast ship container cable_car subway aircraft wheelchair scooter drone" speed="13.89" length="9.50" width="3.00" shape="1059.49,696.00 1059.33,698.70 1059.11,700.55 1058.68,702.36 1057.89,704.95"/>
    </edge>
    <edge id=":10598744311_0" function="internal">
        <lane id=":10598744311_0_0" index="0" disallow="pedestrian tram rail_urban rail rail_electric rail_fast ship container cable_car subway aircraft wheelchair scooter drone" speed="7.13" length="1.85" shape="813.23,1150.86 813.53,1151.28 813.57,1151.65 813.55,1152.06 813.63,1152.61"/>
    </edge>
    <edge id=":10617823434_0" function="internal">
        <lane id=":10617823434_0_0" index="0" allow="pedestrian delivery bicycle" speed="3.65" length="4.67" shape="870.49,1366.91 871.89,1366.56 872.75,1366.81 873.07,1367.64 872.85,1369.07"/>
    </edge>
    <edge id=":10617823453_0" function="internal">
        <lane id=":10617823453_0_0" index="0" allow="pedestrian delivery bicycle" speed="3.65" length="4.67" shape="843.67,1343.37 844.45,1342.16 845.24,1341.75 846.05,1342.14 846.87,1343.32"/>
    </edge>
    <edge id=":10654177266_0" function="internal">
        <lane id=":10654177266_0_0" index="0" allow="pedestrian delivery bicycle" speed="3.65" length="4.67" shape="902.84,1258.27 902.06,1257.05 902.02,1256.16 902.71,1255.59 904.13,1255.35"/>
    </edge>
    <edge id=":10654177268_0" function="internal">
        <lane id=":10654177268_0_0" index="0" disallow="pedestrian tram rail_urban rail rail_electric rail_fast ship container cable_car subway aircraft wheelchair scooter drone" speed="13.89" length="9.44" shape="945.76,1270.83 942.05,1279.52"/>
    </edge>
    <edge id=":10654177268_1" function="internal">
        <lane id=":10654177268_1_0" index="0" allow="delivery bicycle" speed="6.77" length="3.38" shape="945.76,1270.83 944.19,1273.40 943.88,1273.61"/>
    </edge>
    <edge id=":10654177268_7" function="internal">
        <lane id=":10654177268_7_0" index="0" allow="delivery bicycle" speed="6.77" length="7.39" shape="943.88,1273.61 942.22,1274.73 939.84,1274.85 937.06,1273.73"/>
    </edge>
    <edge id=":10654177268_2" function="internal">
        <lane id=":10654177268_2_0" index="0" allow="delivery bicycle" speed="4.92" length="5.15" shape="938.65,1270.96 939.99,1271.49 941.12,1271.44 942.07,1270.80 942.81,1269.58"/>
    </edge>
    <edge id=":10654177268_3" function="internal">
        <lane id=":10654177268_3_0" index="0" allow="delivery bicycle" speed="7.19" length="10.23" shape="938.65,1270.96 940.99,1272.72 942.33,1274.73 942.68,1277.00 942.05,1279.52"/>
    </edge>
    <edge id=":10654177268_4" function="internal">