<?xml version="1.0" encoding="UTF-8"?>

<!-- generated on 2025-10-05 00:09:21 by Eclipse SUMO duarouter Version 1.24.0
<duarouterConfiguration xmlns:xsi="http://www.w3.org/2001/XMLSchema-instance" xsi:noNamespaceSchemaLocation="http://sumo.dlr.de/xsd/duarouterConfiguration.xsd">

    <input>
        <net-file value="osm.net.xml"/>
        <route-files value="osm.passenger.trips.xml"/>
    </input>

    <output>
        <output-file value="osm.passenger.rou.xml"/>
    </output>

    <processing>
        <remove-loops value="true"/>
    </processing>

    <time>
        <begin value="0"/>
        <end value="3600"/>
    </time>

    <report>
        <ignore-errors value="true"/>
    </report>

</duarouterConfiguration>
-->

<routes xmlns:xsi="http://www.w3.org/2001/XMLSchema-instance" xsi:noNamespaceSchemaLocation="http://sumo.dlr.de/xsd/routes_file.xsd">
    <vType id="veh_passenger" vClass="passenger"/>
    <vehicle id="veh0" type="veh_passenger" depart="0.00" departLane="best" departSpeed="max">
        <route edges="378128430#0 217451769 1047288491 429288348 10755051 332455407#0 -332455382#2 -332455382#1 -332455382#0 -332455381 -141885660#2 -141885660#1 -141885660#0"/>
    </vehicle>
    <vehicle id="veh1" type="veh_passenger" depart="10.13" departLane="best" departSpeed="max">
        <route edges="-80414957 -80414960 -4572095 -167403938 4576431 4576432 520140571 520140570#0 520140570#1 136125313#0 136125313#1 136125313#2 136125313#3 -190714064#1 -532158277#1 -549356141#1 -549356141#0 -532158278 -136617339#1 35162947#0 -1344040643 -92142139 -4398951 -548370032 -548370033 4730416#0 4730416#3 548370035 548370031#0 334810149#0 334810149#1 548370029 968872142#0 968872142#1 548370030 548370036 15801838#0 33694486#0 33694486#2 33694486#3 33694486#4 33695352#0 33695352#2 1264561679#0 33695402#0 550432837#0 550432841#0 35162767#0 35162767#1 651999512#0 651999512#1 550432840#1 550432838#0 35162769#1 35162769#2 942285773#0 10594647#0 295864510#0 295864510#1 43585161 1419963610#1 147692718 332455386 147692714 147759323#0 147759323#1 147759323#2 147759323#3 143722134#0 -623571875"/>
    </vehicle>
    <vehicle id="veh2" type="veh_passenger" depart="20.26" departLane="best">
        <route edges="-52008411 25614745 332455393 -627360923 136617339#0 532158278 549356141#0 549356141#1 532158277#0 423368254#0 146783879#0 341018763#0 341018763#1 576862392#0 576862392#2 576862392#3 576862392#4 4576437 559640400 576802239#1 576802239#2 576802239#3 4576431 4576432 4576428"/>
    </vehicle>
    <vehicle id="veh3" type="veh_passenger" depart="30.40" departLane="best" departSpeed="max">
        <route edges="623571874 -147759323#2 -147759323#1 -147759323#0 -147692716 -332455386 -332455399 10594635#0 10594635#1 10594635#2 -15677510#1 -10594647#1 -942285773#1 -35162769#2 -35162769#1 -35162769#0 -550432840#2 -550432840#0 -651999512#0 146977153 1056324193#0 4803559#0 4803559#1 248669676 248669680"/>
    </vehicle>
    <vehicle id="veh4" type="veh_passenger" depart="40.53" departLane="best">
        <route edges="145204590#4 138424023#0 138424023#1 138424035#2 -549356141#0 -532158278 -136617339#1 35162947#0 -1344040643 -92142139 -4398951 -548370032 -548370033 4730416#0 4730416#3 548370035 548370031#0 334810149#0 334810149#1 548370029 968872142#0 14389214#0 14389214#1 -141885660#1"/>
    </vehicle>
    <vehicle id="veh5" type="veh_passenger" depart="50.66" departLane="best">
        <route edges="-5771348#1 -5771348#0 1167488601 4734972 4734976 146545817 601313541 571372263 35162947#0 -1344040643 -92142139 -4398951 -548370032 -548370033 4730416#0 4730416#3 548370035 548370031#0 334810149#0 334810149#1 548370029 968872142#0 968872142#1 548370030 548370036 15801838#0 33694486#0 33694486#2 33694486#3 33694486#4 33695352#0 33695352#2 1264561679#0 33695402#0 550432837#0 550432841#0 35162767#0 35162767#1 651999512#0 651999512#1 550432840#1 550432838#0 35162769#1 35162769#2 942285773#0 10594647#0 295864510#0 295864510#1 43585161 1419963610#1 147692718 332455386 147692714 -332455379"/>
    </vehicle>
    <vehicle id="veh6" type="veh_passenger" depart="60.79" departLane="best">
        <route edges="-43068084#2 341018763#0 341018763#1 -190714064#1 -532158277#1 -549356141#1 -549356141#0 -532158278 -136617339#1 35162947#0 -1344040643 -92142139 -4398951 -548370032 -548370033 4730416#0 4730416#3 548370035 548370031#0 334810149#0 334810149#1 548370029 968872142#0 968872142#1 548370030 548370036 15801838#0 33694486#0 33694486#2 33694486#3 33694486#4 33695352#0 33695352#2 1264561679#0 33695402#0 550432837#0 550432841#0 35162767#0 35162767#1 651999512#0 651999512#1 550432840#1 550432838#0 35162769#1 35162769#2 942285773#0 10594647#0 295864510#0 295864510#1 43585161 1419963610#1 147692718 332455386 147692714 -332455379 -208809259#1 29077447#1"/>
    </vehicle>
    <vehicle id="veh7" type="veh_passenger" depart="70.92" departLane="best">
        <route edges="-596103315#1 -1344040643 -92142139 -4398951 -548370032 -548370033 4730416#0 4730416#3 548370035 548370031#0 334810149#0 334810149#1 548370029 968872142#0 968872142#1 548370030 548370036 15801838#0 33693780#0 33693780#2"/>
    </vehicle>
    <vehicle id="veh8" type="veh_passenger" depart="81.05" departLane="best">
        <route edges="550432834#0 33693799#0 33693780#0 33693780#2 33693780#3 33693780#4 33693780#5 543888804#0 543888804#1 14389212 332455400 332455401#0 15676292#0 15676292#1 332455382#0 332455382#1 332455382#2 140726947#0 140726947#1 609970340#0 609970340#1 50003696#0 50003696#2 50003696#3 35393372 25983494 1121969437#0"/>
    </vehicle>
    <vehicle id="veh9" type="veh_passenger" depart="91.19" departLane="best">
        <route edges="-549356141#0 -532158278 -136617339#1 35162947#0 -1344040643 -92142139 -4398951 -548370032 -548370033 4730416#0"/>
    </vehicle>
    <vehicle id="veh10" type="veh_passenger" depart="101.32" departLane="best">
        <route edges="-1169055177#1 -1169055176 -1169055178 -12618874#0 -601313557#2 -43068084#2 341018763#0 341018763#1 -190714064#1 -532158277#1 -549356141#1 -549356141#0 -532158278 -136617339#1 35162947#0 -1344040643 -92142139 -4398951 -548370032 -548370033 4730416#0 4730416#3 548370035 548370031#0 334810149#0 334810149#1 548370029 968872142#0 968872142#1 548370030 -4803560#1 -4803560#0"/>
    </vehicle>
    <vehicle id="veh11" type="veh_passenger" depart="111.45" departLane="best" departSpeed="max">
        <route edges="7972686#0 -942285773#1 -35162769#2 -35162769#1 -35162769#0 -550432840#2 -550432840#0 -651999512#0 -35162767#1 -35162767#0 -550432841#1 -550432837#1 -33695402#1 -1264561679#1"/>
    </vehicle>
    <vehicle id="veh12" type="veh_passenger" depart="121.58" departLane="best">
        <route edges="-15677510#1 -10594647#1 -942285773#1 -35162769#2 -35162769#1 -35162769#0 -550432840#2 -550432840#0 -651999512#0 146977153 1056324193#0 4803559#0 4803559#1 248669676 -248669678#0 543888806#0 543888806#1 543888806#2 248669682#0 248669682#1 248669683 332455374#0 548370034 548370033 548370032 -146778067 -146778074#3 -146778074#1 -146778074#0 146778061 1121964954 -25614748"/>
    </vehicle>
    <vehicle id="veh13" type="veh_passenger" depart="131.71" departLane="best">
        <route edges="577248827#1 51265912#0 51265912#3 1121964959#1 4730406 27014767#0 609970361#0 1047288491 429288348 10755051 332455407#0 -332455382#2 14389224#0 14389224#1 14389229 334810149#1 548370029 968872142#0 968872142#1 548370030 548370036 15801838#0 33694486#0 33694486#2"/>
    </vehicle>
    <vehicle id="veh14" type="veh_passenger" depart="141.84" departLane="best" departSpeed="max">
        <route edges="141885660#0 4803560#1 548370036 15801838#0 33693780#0 33693780#2 33693780#3 33693780#4 33693780#5 543888804#0 543888804#1 543888805 332455374#0 548370034 548370033 548370032 4398951 92142139 92142136 1411243432#0 1411243431 27331400#0 592017400 4799414 69184467#0 580414174 8143580 53275982 4734976 461211028 577246823 32434209"/>
    </vehicle>
    <vehicle id="veh15" type="veh_passenger" depart="151.98" departLane="best">
        <route edges="602621673 498169246 4950245 4950246 146778074#0 146778074#1 146778074#3 146778067 -548370032 -548370033 4730416#0 4730416#3 548370035 548370031#0 334810149#0"/>
    </vehicle>
    <vehicle id="veh16" type="veh_passenger" depart="162.11" departLane="best" departSpeed="max">
        <route edges="-601313558#1 -43068084#2 341018763#0 341018763#1 -190714064#1 -532158277#1 -549356141#1 -549356141#0 -532158278 -136617339#1 35162947#0 -1344040643 -92142139 -4398951 -548370032 -548370033 4730416#0 4730416#3 548370035 548370031#0 334810149#0 334810149#1 548370029 968872142#0 968872142#1 548370030 548370036 15801838#0 33694486#0 33694486#2 33694486#3 33694486#4 33695352#0 33695352#2 1264561679#0 33695402#0 550432837#0 550432841#0 35162767#0 35162767#1 651999512#0 651999512#1 550432840#1 149233866#0 10414497#2 868387355 543698047 112168955"/>
    </vehicle>
    <vehicle id="veh17" type="veh_passenger" depart="172.24" departLane="best">
        <route edges="208809259#1 208809259#3 147759323#0 147759323#1 147759323#2 147759323#3 143722134#0 143722134#1 143722134#2 143722134#3 143722134#4 143722134#5 143722134#6 35162947#0 -1344040643 -92142139 -4398951 -548370032 -548370033 4730416#0 4730416#3 548370035 334810150#0 334810150#1 140726947#0 140726947#1 609970340#0 609970340#1 50003696#0 50003696#2 50003696#3 35393372 4399044 27014767#0 609970361#0 1047288491 429288348 10755051"/>
    </vehicle>
    <vehicle id="veh18" type="veh_passenger" depart="182.37" departLane="best">
        <route edges="37684124#0 35164367 595805217#0 27410185 374528655 4799417#0 4799415 35164363 -1411243431 -596103315#1 -627360923 136617339#0"/>
    </vehicle>
    <vehicle id="veh19" type="veh_passenger" depart="192.50" departLane="best">
        <route edges="138424023#1 138424035#2 -549356141#0 -532158278 -136617339#1 35162947#0 -1344040643 -92142139 -4398951 -548370032 -548370033 4730416#0 4730416#3 548370035 548370031#0 334810149#0 334810149#1 548370029 968872142#0 968872142#1 548370030 548370036 15801838#0 33694486#0 33694486#2 33694486#3 33694486#4 33695352#0 33695352#2 1264561679#0 33695402#0 550432837#0 550432841#0 35162767#0 35162767#1 651999512#0 651999512#1 550432840#1 550432838#0 35162769#1 35162769#2 942285773#0 10594647#0 295864510#0 295864510#1 43585161 1419963610#1 147692718 332455386 147692714 -332455379 -208809259#1 29077447#1 -623571865"/>
    </vehicle>
    <vehicle id="veh20" type="veh_passenger" depart="202.64" departLane="best" departSpeed="max">
        <route edges="-623571873 147759323#2 147759323#3 143722134#0 143722134#1 143722134#2 143722134#3 143722134#4 143722134#5 143722134#6 35162947#0 -1344040643 -92142139 -4398951 -548370032 -548370033 4730416#0 4730416#3 548370035 334810150#0 334810150#1 140726947#0 140726947#1 609970340#0 609970340#1 536908734#0 536908734#1 536908725 670738521#0"/>
    </vehicle>
    <vehicle id="veh21" type="veh_passenger" depart="212.77" departLane="best">
        <route edges="-43068084#2 341018763#0 341018763#1 -190714064#1 -532158277#1 -549356141#1 -549356141#0 -532158278 -136617339#1 35162947#0 -1344040643 -92142139 -4398951 -548370032 -548370033 4730416#0 4730416#3 548370035 548370031#0 334810149#0 334810149#1 548370029 968872142#0 968872142#1 548370030 548370036 15801838#0 33694486#0 33694486#2 33694486#3 33694486#4 33695352#0 33695352#2 1264561679#0 33695402#0"/>
    </vehicle>
    <vehicle id="veh22" type="veh_passenger" depart="222.90" departLane="best" departSpeed="max">
        <route edges="-4596504 208809259#3 -147692716 -332455386 -332455399 10594635#0 10594635#1 10594635#2 15677510#2 15677510#4 500735195"/>
    </vehicle>
    <vehicle id="veh23" type="veh_passenger" depart="233.03" departLane="best" departSpeed="max">
        <route edges="-4576428 520140571 520140570#0 520140570#1 136125313#0 136125313#1 136125313#2 136125313#3 -190714064#1 -532158277#1 -549356141#1 -549356141#0 -532158278 -136617339#1 35162947#0 -1344040643 -92142139 -4398951 -548370032 -548370033 4730416#0 4730416#3 548370035 548370031#0 334810149#0 334810149#1 548370029 968872142#0 14389214#0 14389214#1 141885660#2"/>
    </vehicle>
    <vehicle id="veh24" type="veh_passenger" depart="243.16" departLane="best">
        <route edges="-942285773#1 -35162769#2 -35162769#1 -35162769#0 -550432840#2 -550432840#0 -651999512#0 -35162767#1 -35162767#0 -550432841#1 -550432837#1 -33695402#1 525958045#0 525958045#2 525958045#3 33693225 550432834#0 33693799#0 33693780#0 33693780#2 33693780#3 33693780#4 33693780#5 543888804#0 543888804#1 14389212 332455400 332455401#0 15676292#0 15676292#1 332455382#0 332455382#1 332455382#2 140726947#0 140726947#1 609970340#0 609970340#1 536908734#0 536908734#1 536908725 670738521#0 371344296#0 371344296#1"/>
    </vehicle>
    <vehicle id="veh25" type="veh_passenger" depart="253.29" departLane="best">
        <route edges="332455374#0 548370034 548370033 548370032 -548370032 -548370033 4730416#0 4730416#3 548370035 548370031#0 334810149#0 334810149#1 548370029 968872142#0 968872142#1 548370030 548370036 15801838#0 33694486#0 33694486#2 33694486#3 33694486#4 33695352#0 33695352#2 1264561679#0 33695402#0 550432837#0 550432841#0 35162767#0 35162767#1 651999512#0 651999512#1 550432840#1 550432838#0 35162769#1 35162769#2 942285773#0 10594647#0 295864510#0 295864510#1 43585161 1419963610#1 147692718 332455386 147692714 -332455379 4596504"/>
    </vehicle>
    <vehicle id="veh26" type="veh_passenger" depart="263.43" departLane="best">
        <route edges="576862393#1 341018763#1 -190714064#1 -532158277#1 -549356141#1 -549356141#0 -532158278 -136617339#1 35162947#0 -1344040643 -92142139 -4398951 -548370032 -548370033 4730416#0 4730416#3 548370035 548370031#0 334810149#0 334810149#1 548370029 15676559#0 15676559#1 15676559#2 33693780#3 33693780#4 33693780#5 543888804#0 543888804#1 543888805"/>
    </vehicle>
    <vehicle id="veh27" type="veh_passenger" depart="273.56" departLane="best" departSpeed="max">
        <route edges="-601313558#1 -43068084#2 341018763#0 341018763#1 -190714064#1 -145204590#6 -145204590#4 -145204590#3 -145204590#2 -145204590#1 -145204590#0"/>
    </vehicle>
    <vehicle id="veh28" type="veh_passenger" depart="283.69" departLane="best" departSpeed="max">
        <route edges="-560707572 136124103 198426622 576802255 4389421 146545815#0 37684124#0 35164367 595805217#0 27410185 374528655 4799417#0 4799415 35164363 -1411243431 -596103315#1 -1344040643 -92142139 -4398951 -548370032 -548370033 4730416#0 4730416#3 548370035 548370031#0 334810149#0 334810149#1 548370029 968872142#0 968872142#1 548370030 548370036 15801838#0 33694486#0 33694486#2 33694486#3 33694486#4 33695352#0 33695352#2 1264561679#0 33695402#0 550432837#0 550432841#0 35162767#0 35162767#1 651999512#0 651999512#1 550432840#1 550432838#0 35162769#1 35162769#2 942285773#0 10594647#0 295864510#0 295864510#1 43585161 1419963610#1 147692718 332455386 147692714 -332455379 -208809259#1 29077447#1 -722646198"/>
    </vehicle>
    <vehicle id="veh29" type="veh_passenger" depart="293.82" departLane="best" departSpeed="max">
        <route edges="-623571873 147759323#2 147759323#3 143722134#0 143722134#1 143722134#2 143722134#3 143722134#4 143722134#5 -623571881"/>
    </vehicle>
    <vehicle id="veh30" type="veh_passenger" depart="303.95" departLane="best">
        <route edges="332455382#1 14389224#0 14389224#1 14389229 334810149#1 548370029 968872142#0 968872142#1 548370030 548370036 15801838#0 33694486#0 33694486#2 33694486#3 33694486#4 33695352#0 33695352#2 1264561679#0 33695402#0 550432837#0 550432841#0 35162767#0 35162767#1 651999512#0 651999512#1 550432840#1 149233866#0 10414497#2"/>
    </vehicle>
    <vehicle id="veh31" type="veh_passenger" depart="314.08" departLane="best">
        <route edges="33693780#3 33693780#4 33693780#5 543888804#0 543888804#1 543888805 332455374#0 548370034 548370033 548370032 -146778067 -146778074#3 -146778074#1 -146778074#0 146778061 1121964954 146778063#0 602621673"/>
    </vehicle>
    <vehicle id="veh32" type="veh_passenger" depart="324.22" departLane="best">
        <route edges="147759323#2 147759323#3 143722134#0 143722134#1 143722134#2 143722134#3 143722134#4 143722134#5 143722134#6 35162947#0 -1344040643 -92142139 -4398951 -146778067"/>
    </vehicle>
    <vehicle id="veh33" type="veh_passenger" depart="334.35" departLane="best">
        <route edges="-145204590#2 -145204590#1 -145204590#0 71167245 576802235 136124103 198426622 576802255 4389421 146545815#0 27410182 120613502#0 120613502#1 1121964966#0 577248827#1 51265912#0 51265912#3 1121964959#1 4730406 27014767#0 609970361#0 1047288491 429288348 10755051 332455407#0 140726947#0 140726947#1 609970340#0 609970340#1 527481483 50003684#0 141887992#0 141887992#1"/>
    </vehicle>
    <vehicle id="veh34" type="veh_passenger" depart="344.48" departLane="best">
        <route edges="-1121969437#0 -25983494 4399044 27014767#0 609970361#0 1047288491 429288348 10755051 332455407#0 140726947#0 140726947#1 609970340#0 609970340#1 536908734#0 536908734#1 536908725 670738521#0 371344296#0 371344296#1 602621681 602621673 498169246"/>
    </vehicle>
    <vehicle id="veh35" type="veh_passenger" depart="354.61" departLane="best">
        <route edges="4576432 520140571 520140570#0 520140570#1 136125313#0 136125313#1 136125313#2 136125313#3 146783879#0 43068084#0 601313557#2 12618874#0 12618874#1 1169055176 1169055177#0 549020386#0 4596401 27390441"/>
    </vehicle>
    <vehicle id="veh36" type="veh_passenger" depart="364.74" departLane="best" departSpeed="max">
        <route edges="-623571873 147759323#2 147759323#3 143722134#0 143722134#1 143722134#2 143722134#3 143722134#4 143722134#5 143722134#6 35162947#0 1411243432#0 1411243431 27331400#0 27331400#1 35164364 35164367 595805217#0 27410185 374528655"/>
    </vehicle>
    <vehicle id="veh37" type="veh_passenger" depart="374.88" departLane="best">
        <route edges="147692718 332455386 147692714 147759323#0 147759323#1 147759323#2 147759323#3 143722134#0 143722134#1 143722134#2 143722134#3 143722134#4 143722134#5 143722134#6 136617339#0 532158278 549356141#0 549356141#1 532158277#0 423368254#0 146783879#0 43068084#0 601313557#2 12618874#0 12618874#1 1169055176 1169055177#0 549020386#0 549020386#1 77079364#0 77079366 601313539 77078537#0"/>
    </vehicle>
    <vehicle id="veh38" type="veh_passenger" depart="385.01" departLane="best" departSpeed="max">
        <route edges="623571861 11916106#1 722646198 623570426#0 208809259#1 208809259#3 -147692716 -332455386 -332455399 10594635#0 10594635#1 10594635#2 -15677510#1 -10594647#1 -942285773#1 -35162769#2 -35162769#1 -35162769#0 -550432840#2 -550432840#0 -651999512#0 651999512#0 651999512#1 550432840#1 149233866#0 10414497#2"/>
    </vehicle>
    <vehicle id="veh39" type="veh_passenger" depart="395.14" departLane="best">
        <route edges="248669682#0 543888807 -543888808 26127384#2 33695352#0 33695352#2 1264561679#0 33695402#0 550432837#0 550432841#0 35162767#0 35162767#1 651999512#0 651999512#1 550432840#1"/>
    </vehicle>
    <vehicle id="veh40" type="veh_passenger" depart="405.27" departLane="best" departSpeed="max">
        <route edges="623571878 143722134#3 143722134#4 143722134#5 143722134#6 35162947#0 1411243432#0 1411243431 27331400#0 592017400 4799414 69184467#0 580414174"/>
    </vehicle>
    <vehicle id="veh41" type="veh_passenger" depart="415.40" departLane="best">
        <route edges="341018763#1 -190714064#1 -532158277#1 -549356141#1 -549356141#0 -532158278 -136617339#1 35162947#0 -1344040643 -92142139 -4398951 -548370032 -548370033 4730416#0 4730416#3 548370035 548370031#0 334810149#0 334810149#1 548370029 968872142#0 968872142#1 548370030 -4803560#1 -4803560#0"/>
    </vehicle>
    <vehicle id="veh42" type="veh_passenger" depart="425.53" departLane="best">
        <route edges="543888830#1 -35162767#1 -35162767#0 -550432841#1 -550432837#1 -33695402#1 525958045#0 525958045#2 525958045#3 33693225 550432834#0 33693799#0 33693780#0 33693780#2 33693780#3 33693780#4 33693780#5 543888804#0 543888804#1 14389212 332455400 332455401#0 15676292#0 15676292#1 332455382#0 332455382#1 332455382#2 140726947#0 140726947#1 609970340#0 609970340#1 50003696#0 50003696#2 50003696#3 35393372 4399044 27014767#0"/>
    </vehicle>
    <vehicle id="veh43" type="veh_passenger" depart="435.67" departLane="best">
        <route edges="1056324193#0 4803559#0 4803559#1 248669676 -248669678#0 543888806#0 543888806#1 543888806#2 248669682#0 248669682#1 248669683 332455374#0 548370034 548370033 548370032 4398951 92142139 92142136 -627360923 136617339#0 532158278 549356141#0 549356141#1 532158277#0 423368254#0 146783879#0 341018763#0 341018763#1 576862392#0 576862392#2 576862392#3 576862392#4 4576437 12182173"/>
    </vehicle>
    <vehicle id="veh44" type="veh_passenger" depart="445.80" departLane="best" departSpeed="max">
        <route edges="-1169055177#1 -1169055176 -1169055178 -12618874#0 -601313557#2 -43068084#2 341018763#0 341018763#1 -190714064#1 -532158277#1 -549356141#1 -549356141#0 -532158278 -136617339#1 35162947#0 -1344040643 -92142139 -4398951 -548370032 -548370033 4730416#0 4730416#3 548370035 548370031#0 334810149#0 334810149#1 548370029 968872142#0 968872142#1 548370030 548370036 15801838#0 33694486#0 33694486#2 33694486#3 33694486#4 33695352#0 33695352#2 1264561679#0 33695402#0 550432837#0 550432841#0 35162767#0 35162767#1 651999512#0 651999512#1 550432840#1 550432838#0 35162769#1 35162769#2 942285773#0 10594647#0 295864510#0 295864510#1 43585161 1419963610#1 147692718 332455386 147692714 147759323#0 147759323#1 623571873"/>
    </vehicle>
    <vehicle id="veh45" type="veh_passenger" depart="455.93" departLane="best">
        <route edges="1056324193#0 4803559#0 4803559#1 248669676 -248669678#0 543888806#0 543888806#1 543888806#2 248669682#0 248669682#1 248669683 332455374#0 548370034 548370033 548370032 4398951 92142139 92142136 -627360923 136617339#0 532158278 549356141#0 549356141#1 532158277#0 423368254#0 146783879#0 43068084#0 601313557#2 12618874#0 -147633774#1 -147633774#0"/>
    </vehicle>
    <vehicle id="veh46" type="veh_passenger" depart="466.06" departLane="best">
        <route edges="-145204590#6 138424023#0 138424023#1 138424035#2 -549356141#0 -532158278 -136617339#1 35162947#0 -1344040643 -92142139 -4398951 -548370032 -548370033 4730416#0 4730416#3 548370035 334810150#0 334810150#1 140726947#0 140726947#1 609970340#0 609970340#1 536908734#0 536908734#1 536908725"/>
    </vehicle>
    <vehicle id="veh47" type="veh_passenger" depart="476.19" departLane="best">
        <route edges="543888804#0 543888804#1 14389212 332455400 332455401#0 548370029 968872142#0 968872142#1 548370030 548370036 15801838#0 33694486#0 33694486#2 33694486#3 33694486#4 33695352#0 33695352#2 1264561679#0 33695402#0 550432837#0 550432841#0 35162767#0"/>
    </vehicle>
    <vehicle id="veh48" type="veh_passenger" depart="486.32" departLane="best" departSpeed="max">
        <route edges="-623571873 147759323#2 147759323#3 143722134#0 143722134#1 143722134#2 143722134#3 143722134#4 143722134#5 143722134#6 35162947#0 1411243432#0 1411243431 27331400#0 592017400"/>
    </vehicle>
    <vehicle id="veh49" type="veh_passenger" depart="496.46" departLane="best">
        <route edges="145204590#5 -532158277#1 -549356141#1 -549356141#0 -532158278 -136617339#1 35162947#0 -1344040643 -92142139 -4398951 -548370032 -548370033 4730416#0 4730416#3 548370035 548370031#0 334810149#0 334810149#1 548370029 968872142#0 968872142#1 548370030 548370036 15801838#0 33694486#0 33694486#2 33694486#3 33694486#4 33695352#0 33695352#2 1264561679#0 33695402#0 550432837#0 550432841#0 35162767#0 35162767#1 651999512#0 651999512#1 550432840#1 550432838#0 35162769#1 35162769#2 942285773#0 10594647#0 295864510#0 295864510#1 43585161 1419963610#1 147692718 332455386 147692714 -332455379 -623571868"/>
    </vehicle>
    <vehicle id="veh50" type="veh_passenger" depart="506.59" departLane="best" departSpeed="max">
        <route edges="27410107#0 1167488601 4734972 4389421 146545815#0 27410182 120613502#0 120613502#1 1121964966#0 577248827#1 51265912#0"/>
    </vehicle>
    <vehicle id="veh51" type="veh_passenger" depart="516.72" departLane="best">
        <route edges="550432840#1 550432838#0 35162769#1 35162769#2 942285773#0 10594647#0 295864510#0 295864510#1 43585161 1419963610#1 147692718 332455386 147692714 -332455379 -208809259#1 29077447#1 -722646198 -11916106#1 -11916106#0"/>
    </vehicle>
    <vehicle id="veh52" type="veh_passenger" depart="526.85" departLane="best">
        <route edges="968872142#1 548370030 548370036 15801838#0 33693780#0 33693780#2 33693780#3 33693780#4 33693780#5 543888804#0 543888804#1 543888805 332455374#0 548370034 548370033 548370032 4398951 92142139 92142136 -627360923 136617339#0 532158278 549356141#0 549356141#1 532158277#0 423368254#0"/>
    </vehicle>
    <vehicle id="veh53" type="veh_passenger" depart="536.98" departLane="best">
        <route edges="-1169055176 -1169055178 -12618874#0 -601313557#2 -43068084#2 341018763#0 341018763#1 -190714064#1 -532158277#1 -549356141#1 -549356141#0 -532158278 -136617339#1 35162947#0 -1344040643 -92142139 -4398951 -548370032 -548370033 4730416#0 4730416#3 548370035 548370031#0 334810149#0 334810149#1 548370029 968872142#0 968872142#1 548370030 548370036 15801838#0 33693780#0 33693780#2"/>
    </vehicle>
    <vehicle id="veh54" type="veh_passenger" depart="547.12" departLane="best" departSpeed="max">
        <route edges="-601313558#1 -43068084#2 341018763#0 341018763#1 -190714064#1 -532158277#1 -549356141#1 -549356141#0 -532158278 -136617339#1 35162947#0 -1344040643 -92142139 -4398951 -548370032 -548370033 4730416#0 4730416#3 548370035 548370031#0 334810149#0 334810149#1 548370029 968872142#0 968872142#1 548370030 548370036 15801838#0 33694486#0 33694486#2 33694486#3 33694486#4 33695352#0 33695352#2 1264561679#0 33695402#0 550432837#0 550432841#0 35162767#0 35162767#1 651999512#0 651999512#1 550432840#1 550432838#0 35162769#1 35162769#2 942285773#0 10594647#0 295864510#0 295864510#1 43585161 1419963610#1 147692718 332455386 147692714 147759323#0 147759323#1 147759323#2 -623571874"/>
    </vehicle>
    <vehicle id="veh55" type="veh_passenger" depart="557.25" departLane="best">
        <route edges="-146545821 -92142133 -1344040643 -92142139 -4398951 4398951 92142139 92142136 1411243432#0 1411243431 27331400#0 27331400#1 35164364 35164367"/>
    </vehicle>
    <vehicle id="veh56" type="veh_passenger" depart="567.38" departLane="best" departSpeed="max">
        <route edges="-601313558#1 -43068084#2 341018763#0 341018763#1 -190714064#1 -532158277#1 -549356141#1 -549356141#0 -532158278 -136617339#1 35162947#0 -1344040643 -92142139 -4398951 -548370032 -548370033 4730416#0 4730416#3 548370035 334810150#0 334810150#1 140726947#0 140726947#1 609970340#0 609970340#1"/>
    </vehicle>
    <vehicle id="veh57" type="veh_passenger" depart="577.51" departLane="best">
        <route edges="-601313557#2 -43068084#2 341018763#0 341018763#1 -190714064#1 -532158277#1 -549356141#1 -549356141#0 -532158278 -136617339#1 35162947#0 -1344040643 -92142139 -4398951 -548370032 -548370033 4730416#0 4730416#3 548370035 548370031#0 334810149#0 334810149#1 548370029 968872142#0 968872142#1 548370030 548370036 15801838#0 33694486#0 33694486#2 33694486#3 33694486#4 33695352#0 33695352#2 1264561679#0 33695402#0 550432837#0 550432841#0 35162767#0 35162767#1 651999512#0 651999512#1 550432840#1 550432838#0 35162769#1 35162769#2 942285773#0 10594647#0 -15677510#0"/>
    </vehicle>
    <vehicle id="veh58" type="veh_passenger" depart="587.64" departLane="best" departSpeed="max">
        <route edges="-601313558#1 -43068084#2 341018763#0 341018763#1 -190714064#1 -532158277#1 -549356141#1 -549356141#0 -532158278 -136617339#1 35162947#0 -1344040643 -92142139 -4398951 -548370032 -548370033 4730416#0 4730416#3 548370035 334810150#0 334810150#1 140726947#0 140726947#1 609970340#0 609970340#1 50003696#0 50003696#2 50003696#3 35393372 4399044"/>
    </vehicle>
    <vehicle id="veh59" type="veh_passenger" depart="597.77" departLane="best" departSpeed="max">
        <route edges="-560707572 136124103 198426622 576802255 4389421 146545815#0 37684124#0 35164367 595805217#0 27410185 374528655 4799417#0 4799415 35164363 -1411243431 -596103315#1 -1344040643 -92142139 -4398951 -548370032 -548370033 4730416#0 4730416#3 548370035 548370031#0 334810149#0 334810149#1 548370029 968872142#0 968872142#1 548370030 548370036 15801838#0 33694486#0 33694486#2 33694486#3 33694486#4 33695352#0 33695352#2 1264561679#0 33695402#0 550432837#0 550432841#0 35162767#0 35162767#1 651999512#0 651999512#1 550432840#1 550432838#0 35162769#1 35162769#2"/>
    </vehicle>
    <vehicle id="veh60" type="veh_passenger" depart="607.91" departLane="best" departSpeed="max">
        <route edges="671971345 11916106#0 11916106#1 722646198 623570426#0 208809259#1 208809259#3 147759323#0 147759323#1 147759323#2 147759323#3 143722134#0 143722134#1 143722134#2 143722134#3 143722134#4 143722134#5 143722134#6 35162947#0 -1344040643 -92142139 -4398951 -548370032 -548370033 4730416#0 4730416#3 548370035 548370031#0 334810149#0 334810149#1 548370029 15676559#0 15676559#1 15676559#2 33693780#3 33693780#4 33693780#5 543888804#0 543888804#1 14389212 332455400"/>
    </vehicle>
    <vehicle id="veh61" type="veh_passenger" depart="618.04" departLane="best" departSpeed="max">
        <route edges="15677510#0 -10594647#1 -942285773#1 -35162769#2 -35162769#1 -35162769#0 -550432840#2 -550432840#0 -651999512#0 -35162767#1"/>
    </vehicle>
    <vehicle id="veh62" type="veh_passenger" depart="628.17" departLane="best">