<?xml version="1.0" encoding="UTF-8"?>

<!-- generated on 2025-10-04 17:25:29 by Eclipse SUMO netconvert Version 1.24.0
<netconvertConfiguration xmlns:xsi="http://www.w3.org/2001/XMLSchema-instance" xsi:noNamespaceSchemaLocation="http://sumo.dlr.de/xsd/netconvertConfiguration.xsd">

    <input>
        <type-files value="${SUMO_HOME}/data/typemap/osmNetconvert.typ.xml"/>
        <osm-files value="osm_bbox.osm.xml.gz"/>
    </input>

    <output>
        <output-file value="osm.net.xml.gz"/>
        <output.street-names value="true"/>
        <output.original-names value="true"/>
    </output>

    <projection>
        <proj.utm value="true"/>
    </projection>

    <processing>
        <geometry.remove value="true"/>
        <roundabouts.guess value="true"/>
    </processing>

    <tls_building>
        <tls.discard-simple value="true"/>
        <tls.join value="true"/>
        <tls.guess-signals value="true"/>
        <tls.default-type value="actuated"/>
    </tls_building>

    <ramp_guessing>
        <ramps.guess value="true"/>
    </ramp_guessing>

    <junctions>
        <junctions.join value="true"/>
        <junctions.corner-detail value="5"/>
    </junctions>

</netconvertConfiguration>
-->

<net version="1.20" junctionCornerDetail="5" limitTurnSpeed="5.50" xmlns:xsi="http://www.w3.org/2001/XMLSchema-instance" xsi:noNamespaceSchemaLocation="http://sumo.dlr.de/xsd/net_file.xsd">

    <location netOffset="-464393.08,-5246278.99" convBoundary="0.00,0.00,1295.93,1248.66" origBoundary="8.528288,47.369040,8.545523,47.380236" projParameter="+proj=utm +zone=32 +ellps=WGS84 +datum=WGS84 +units=m +no_defs"/>

    <type id="highway.cycleway" priority="1" numLanes="1" speed="5.56" allow="bicycle" oneway="0" width="2.00"/>
    <type id="highway.footway" priority="1" numLanes="1" speed="2.78" allow="pedestrian" oneway="1" width="2.00"/>
    <type id="highway.living_street" priority="2" numLanes="1" speed="2.78" disallow="tram rail_urban rail rail_electric rail_fast ship container cable_car subway aircraft wheelchair scooter drone" oneway="0"/>
    <type id="highway.path" priority="1" numLanes="1" speed="5.56" allow="pedestrian bicycle" oneway="0" width="2.00"/>
    <type id="highway.pedestrian" priority="1" numLanes="1" speed="2.78" allow="pedestrian" oneway="1" width="2.00"/>
    <type id="highway.residential" priority="3" numLanes="1" speed="13.89" disallow="tram rail_urban rail rail_electric rail_fast ship container cable_car subway aircraft wheelchair scooter drone" oneway="0"/>
    <type id="highway.service" priority="1" numLanes="1" speed="5.56" allow="pedestrian delivery bicycle" oneway="0"/>
    <type id="highway.steps" priority="1" numLanes="1" speed="1.39" allow="pedestrian" oneway="1" width="2.00"/>
    <type id="highway.tertiary" priority="10" numLanes="1" speed="22.22" disallow="tram rail_urban rail rail_electric rail_fast ship container cable_car subway aircraft wheelchair scooter drone" oneway="0"/>
    <type id="highway.unclassified" priority="4" numLanes="1" speed="13.89" disallow="tram rail_urban rail rail_electric rail_fast ship container cable_car subway aircraft wheelchair scooter drone" oneway="0"/>

    <edge id=":10058222706_0" function="internal">
        <lane id=":10058222706_0_0" index="0" disallow="pedestrian tram rail_urban rail rail_electric rail_fast ship container cable_car subway aircraft wheelchair scooter drone" speed="13.89" length="4.99" shape="726.35,628.18 721.38,628.97"/>
        <lane id=":10058222706_0_1" index="1" disallow="pedestrian tram rail_urban rail rail_electric rail_fast ship container cable_car subway aircraft wheelchair scooter drone" speed="13.89" length="4.99" shape="725.84,625.02 720.91,625.81"/>
        <lane id=":10058222706_0_2" index="2" disallow="pedestrian tram rail_urban rail rail_electric rail_fast ship container cable_car subway aircraft wheelchair scooter drone" speed="13.89" length="4.99" shape="725.33,621.87 720.44,622.64"/>
    </edge>
    <edge id=":10066996012_0" function="internal">
        <lane id=":10066996012_0_0" index="0" disallow="pedestrian tram rail_urban rail rail_electric rail_fast ship container cable_car subway aircraft wheelchair scooter drone" speed="5.86" length="1.15" shape="588.99,519.11 588.23,518.25"/>
    </edge>
    <edge id=":10066996012_1" function="internal">
        <lane id=":10066996012_1_0" index="0" disallow="pedestrian tram rail_urban rail rail_electric rail_fast ship container cable_car subway aircraft wheelchair scooter drone" speed="3.65" length="1.06" shape="588.99,519.11 588.58,518.14"/>
    </edge>
    <edge id=":10066996012_4" function="internal">
        <lane id=":10066996012_4_0" index="0" disallow="pedestrian tram rail_urban rail rail_electric rail_fast ship container cable_car subway aircraft wheelchair scooter drone" speed="5.86" length="5.52" shape="588.23,518.25 588.16,518.17 587.93,516.84 588.29,515.13 589.26,513.03"/>
    </edge>
    <edge id=":10066996012_5" function="internal">
        <lane id=":10066996012_5_0" index="0" disallow="pedestrian tram rail_urban rail rail_electric rail_fast ship container cable_car subway aircraft wheelchair scooter drone" speed="3.65" length="3.61" shape="588.58,518.14 588.43,517.78 588.54,516.90 589.32,516.45 590.76,516.45"/>
    </edge>
    <edge id=":10066996012_2" function="internal">
        <lane id=":10066996012_2_0" index="0" disallow="pedestrian tram rail_urban rail rail_electric rail_fast ship container cable_car subway aircraft wheelchair scooter drone" speed="13.89" length="5.66" shape="586.19,517.76 587.25,516.46 587.90,515.52 588.46,514.51 589.26,513.03"/>
    </edge>
    <edge id=":10066996012_3" function="internal">
        <lane id=":10066996012_3_0" index="0" disallow="pedestrian tram rail_urban rail rail_electric rail_fast ship container cable_car subway aircraft wheelchair scooter drone" speed="5.35" length="5.26" shape="586.19,517.76 587.36,516.64 588.51,516.04 589.64,515.98 590.76,516.45"/>
    </edge>
    <edge id=":10261768646_0" function="internal">
        <lane id=":10261768646_0_0" index="0" disallow="tram rail_urban rail rail_electric rail_fast ship container cable_car subway aircraft wheelchair scooter drone" speed="13.89" length="5.41" shape="636.56,848.33 633.41,843.93"/>
    </edge>
    <edge id=":10261768646_1" function="internal">
        <lane id=":10261768646_1_0" index="0" disallow="tram rail_urban rail rail_electric rail_fast ship container cable_car subway aircraft wheelchair scooter drone" speed="13.89" length="5.13" shape="636.09,842.18 639.08,846.35"/>
    </edge>
    <edge id=":1037301577_0" function="internal">
        <lane id=":1037301577_0_0" index="0" allow="emergency authority pedestrian" speed="2.78" length="4.12" width="2.00" shape="886.81,356.74 884.64,360.24"/>
    </edge>
    <edge id=":1037301577_1" function="internal">
        <lane id=":1037301577_1_0" index="0" allow="emergency authority pedestrian" speed="2.78" length="2.99" width="2.00" shape="886.81,356.74 885.90,356.89 885.36,356.70 885.20,356.15 885.40,355.25"/>
    </edge>
    <edge id=":1037301577_2" function="internal">
        <lane id=":1037301577_2_0" index="0" allow="emergency authority pedestrian" speed="2.78" length="4.71" width="2.00" shape="882.91,359.24 885.40,355.25"/>
    </edge>
    <edge id=":1037301577_3" function="internal">
        <lane id=":1037301577_3_0" index="0" allow="emergency authority pedestrian" speed="2.78" length="2.92" width="2.00" shape="882.91,359.24 883.72,358.84 884.27,358.88 884.58,359.34 884.64,360.24"/>
    </edge>
    <edge id=":1037402739_0" function="internal">
        <lane id=":1037402739_0_0" index="0" allow="pedestrian bicycle" speed="2.89" length="2.92" width="2.00" shape="951.34,304.06 950.83,303.32 950.78,302.77 951.19,302.39 952.07,302.20"/>
    </edge>
    <edge id=":1037539521_0" function="internal">
        <lane id=":1037539521_0_0" index="0" allow="pedestrian delivery bicycle" speed="3.65" length="4.67" shape="792.76,339.32 791.68,340.28 790.81,340.46 790.13,339.87 789.66,338.51"/>
    </edge>
    <edge id=":104329048_0" function="internal">
        <lane id=":104329048_0_0" index="0" allow="pedestrian bicycle" speed="2.89" length="2.92" width="2.00" shape="196.75,186.46 196.82,185.56 197.14,185.10 197.69,185.07 198.50,185.48"/>
    </edge>
    <edge id=":10598744311_0" function="internal">
        <lane id=":10598744311_0_0" index="0" disallow="pedestrian tram rail_urban rail rail_electric rail_fast ship container cable_car subway aircraft wheelchair scooter drone" speed="13.89" length="0.99" shape="1203.42,858.00 1203.34,858.99"/>
    </edge>
    <edge id=":10716770147_0" function="internal">
        <lane id=":10716770147_0_0" index="0" allow="pedestrian delivery bicycle" speed="3.65" length="4.67" shape="695.06,449.29 694.24,450.48 693.43,450.86 692.64,450.45 691.86,449.23"/>
    </edge>
    <edge id=":10716770158_0" function="internal">
        <lane id=":10716770158_0_0" index="0" allow="pedestrian delivery bicycle" speed="5.56" length="2.23" shape="686.08,394.41 683.85,394.48"/>
    </edge>
    <edge id=":10716770158_1" function="internal">
        <lane id=":10716770158_1_0" index="0" allow="pedestrian delivery bicycle" speed="3.65" length="4.67" shape="686.07,392.18 686.38,393.59 686.11,394.45 685.27,394.74 683.85,394.48"/>
    </edge>
    <edge id=":10716770168_0" function="internal">
        <lane id=":10716770168_0_0" index="0" allow="pedestrian delivery bicycle" speed="5.56" length="5.00" shape="695.70,416.84 695.59,421.84"/>
    </edge>
    <edge id=":10716770168_1" function="internal">
        <lane id=":10716770168_1_0" index="0" allow="pedestrian delivery bicycle" speed="3.65" length="4.67" shape="695.70,416.84 694.87,418.02 694.06,418.41 693.27,417.99 692.50,416.78"/>
    </edge>
    <edge id=":10716770168_2" function="internal">
        <lane id=":10716770168_2_0" index="0" allow="pedestrian delivery bicycle" speed="5.56" length="4.99" shape="692.39,421.77 692.50,416.78"/>
    </edge>
    <edge id=":10716770168_3" function="internal">
        <lane id=":10716770168_3_0" index="0" allow="pedestrian delivery bicycle" speed="3.65" length="4.67" shape="692.39,421.77 693.22,420.59 694.03,420.20 694.82,420.62 695.59,421.84"/>
    </edge>
    <edge id=":10716770169_0" function="internal">
        <lane id=":10716770169_0_0" index="0" allow="pedestrian delivery bicycle" speed="5.56" length="3.52" shape="692.52,415.89 692.78,414.95 693.35,414.40 693.91,413.86 694.18,412.92"/>
    </edge>
    <edge id=":10716770169_1" function="internal">
        <lane id=":10716770169_1_0" index="0" allow="pedestrian delivery bicycle" speed="3.65" length="4.67" shape="692.52,415.89 693.34,414.70 694.15,414.32 694.94,414.74 695.71,415.95"/>
    </edge>
    <edge id=":10716770185_0" function="internal">
        <lane id=":10716770185_0_0" index="0" allow="pedestrian delivery bicycle" speed="3.65" length="4.67" shape="695.57,422.81 694.75,424.00 693.94,424.38 693.15,423.96 692.37,422.75"/>
    </edge>
    <edge id=":10716770185_1" function="internal">
        <lane id=":10716770185_1_0" index="0" allow="pedestrian delivery bicycle" speed="5.56" length="3.52" shape="693.91,425.78 693.68,424.83 693.14,424.26 692.60,423.70 692.37,422.75"/>
    </edge>
    <edge id=":10716770186_0" function="internal">
        <lane id=":10716770186_0_0" index="0" allow="pedestrian delivery bicycle" speed="5.56" length="3.52" shape="691.92,446.17 692.19,445.22 692.75,444.68 693.31,444.14 693.58,443.20"/>
    </edge>
    <edge id=":10716770186_1" function="internal">
        <lane id=":10716770186_1_0" index="0" allow="pedestrian delivery bicycle" speed="3.65" length="4.67" shape="691.92,446.17 692.74,444.98 693.55,444.60 694.34,445.01 695.12,446.23"/>
    </edge>
    <edge id=":10716770577_0" function="internal">
        <lane id=":10716770577_0_0" index="0" disallow="pedestrian tram rail_urban rail rail_electric rail_fast ship container cable_car subway aircraft wheelchair scooter drone" speed="13.89" length="4.21" shape="644.63,458.07 645.65,458.98 646.30,459.66 646.87,460.40 647.64,461.53"/>
        <lane id=":10716770577_0_1" index="1" disallow="pedestrian tram rail_urban rail rail_electric rail_fast ship container cable_car subway aircraft wheelchair scooter drone" speed="13.89" length="4.21" shape="642.52,460.47 643.36,461.23 643.89,461.79 644.36,462.41 645.01,463.34"/>
    </edge>
    <edge id=":10722724311_0" function="internal">
        <lane id=":10722724311_0_0" index="0" allow="pedestrian delivery bicycle" speed="5.56" length="9.40" shape="759.74,809.39 756.80,800.46"/>
    </edge>
    <edge id=":10722724311_1" function="internal">
        <lane id=":10722724311_1_0" index="0" allow="pedestrian delivery bicycle" speed="5.56" length="10.17" shape="759.74,809.39 759.26,806.68 759.78,804.45 761.28,802.69 763.77,801.40"/>
    </edge>
    <edge id=":10722724311_2" function="internal">
        <lane id=":10722724311_2_0" index="0" allow="pedestrian delivery bicycle" speed="3.65" length="4.67" shape="759.74,809.39 760.12,808.00 760.76,807.37 761.64,807.50 762.78,808.39"/>
    </edge>
    <edge id=":10722724311_3" function="internal">
        <lane id=":10722724311_3_0" index="0" allow="pedestrian delivery bicycle" speed="5.11" length="5.08" shape="764.83,804.42 763.57,805.07 762.81,805.94 762.55,807.05 762.78,808.39"/>
    </edge>
    <edge id=":10722724311_4" function="internal">
        <lane id=":10722724311_4_0" index="0" allow="pedestrian delivery bicycle" speed="5.56" length="10.26" shape="764.83,804.42 762.07,804.97 759.81,804.49 758.05,802.99 756.80,800.46"/>
    </edge>
    <edge id=":10722724311_5" function="internal">
        <lane id=":10722724311_5_0" index="0" allow="pedestrian delivery bicycle" speed="3.65" length="4.67" shape="764.83,804.42 763.44,804.06 762.79,803.44 762.91,802.55 763.77,801.40"/>
    </edge>
    <edge id=":10722724311_6" function="internal">
        <lane id=":10722724311_6_0" index="0" allow="pedestrian delivery bicycle" speed="5.02" length="5.02" shape="759.84,799.46 760.45,800.70 761.31,801.43 762.42,801.67 763.77,801.40"/>
    </edge>
    <edge id=":10722724311_7" function="internal">
        <lane id=":10722724311_7_0" index="0" allow="pedestrian delivery bicycle" speed="5.56" length="9.40" shape="759.84,799.46 762.78,808.39"/>
    </edge>
    <edge id=":10722724311_8" function="internal">
        <lane id=":10722724311_8_0" index="0" allow="pedestrian delivery bicycle" speed="3.65" length="4.67" shape="759.84,799.46 759.46,800.85 758.82,801.48 757.94,801.35 756.80,800.46"/>
    </edge>
    <edge id=":10722724314_0" function="internal">
        <lane id=":10722724314_0_0" index="0" allow="pedestrian delivery bicycle" speed="5.10" length="5.07" shape="743.13,814.80 742.21,813.80 741.17,813.33 740.01,813.40 738.74,814.00"/>
    </edge>
    <edge id=":10722724314_1" function="internal">
        <lane id=":10722724314_1_0" index="0" allow="pedestrian delivery bicycle" speed="5.56" length="9.11" shape="743.13,814.80 738.02,807.27"/>
    </edge>
    <edge id=":10722724314_2" function="internal">
        <lane id=":10722724314_2_0" index="0" allow="pedestrian delivery bicycle" speed="3.65" length="4.67" shape="743.13,814.80 743.12,813.36 743.55,812.58 744.44,812.46 745.78,813.01"/>
    </edge>
    <edge id=":10722724314_3" function="internal">
        <lane id=":10722724314_3_0" index="0" allow="pedestrian delivery bicycle" speed="5.56" length="8.52" shape="741.00,805.96 745.78,813.01"/>
    </edge>
    <edge id=":10722724314_4" function="internal">
        <lane id=":10722724314_4_0" index="0" allow="pedestrian delivery bicycle" speed="5.56" length="9.55" shape="741.00,805.96 742.01,808.17 741.97,810.25 740.88,812.19 738.74,814.00"/>
    </edge>
    <edge id=":10722724314_5" function="internal">
        <lane id=":10722724314_5_0" index="0" allow="pedestrian delivery bicycle" speed="3.67" length="4.75" shape="741.00,805.96 740.74,807.40 740.16,808.10 739.25,808.06 738.02,807.27"/>
    </edge>
    <edge id=":10722724314_6" function="internal">
        <lane id=":10722724314_6_0" index="0" allow="pedestrian delivery bicycle" speed="4.93" length="4.79" shape="736.99,811.32 738.03,810.43 738.55,809.45 738.55,808.40 738.02,807.27"/>
    </edge>
    <edge id=":10722724314_7" function="internal">
        <lane id=":10722724314_7_0" index="0" allow="pedestrian delivery bicycle" speed="5.56" length="10.16" shape="736.99,811.32 739.52,810.13 741.83,810.01 743.92,810.97 745.78,813.01"/>
    </edge>
    <edge id=":10722724314_8" function="internal">
        <lane id=":10722724314_8_0" index="0" allow="pedestrian delivery bicycle" speed="3.65" length="4.67" shape="736.99,811.32 738.43,811.34 739.20,811.79 739.31,812.68 738.74,814.00"/>
    </edge>
    <edge id=":10723030991_0" function="internal">
        <lane id=":10723030991_0_0" index="0" allow="pedestrian delivery bicycle" speed="3.65" length="4.67" shape="800.49,476.21 799.69,475.01 799.63,474.11 800.31,473.53 801.73,473.26"/>
    </edge>
    <edge id=":10811065199_0" function="internal">
        <lane id=":10811065199_0_0" index="0" allow="pedestrian delivery bicycle" speed="5.56" length="5.46" shape="224.70,555.03 223.12,554.72 222.02,554.67 220.89,554.74 219.27,554.75"/>
    </edge>
    <edge id=":10820680735_0" function="internal">
        <lane id=":10820680735_0_0" index="0" disallow="tram rail_urban rail rail_electric rail_fast ship container cable_car subway aircraft wheelchair scooter drone" speed="13.89" length="6.45" width="2.60" shape="987.81,570.53 984.95,564.75"/>
    </edge>
    <edge id=":10820680735_1" function="internal">
        <lane id=":10820680735_1_0" index="0" disallow="tram rail_urban rail rail_electric rail_fast ship container cable_car subway aircraft wheelchair scooter drone" speed="13.89" length="6.45" width="2.60" shape="987.28,563.60 990.14,569.38"/>
    </edge>
    <edge id=":11107612633_0" function="internal">
        <lane id=":11107612633_0_0" index="0" allow="pedestrian delivery bicycle" speed="5.56" length="4.45" shape="411.42,826.21 411.33,827.29 411.01,828.31 410.45,829.26 409.65,830.15"/>
    </edge>
    <edge id=":11107612636_0" function="internal">
        <lane id=":11107612636_0_0" index="0" allow="pedestrian delivery bicycle" speed="5.00" length="5.04" shape="375.87,861.66 375.00,862.74 374.70,863.83 374.96,864.94 375.80,866.05"/>
    </edge>
    <edge id=":11107612636_1" function="internal">
        <lane id=":11107612636_1_0" index="0" disallow="tram rail_urban rail rail_electric rail_fast ship container cable_car subway aircraft wheelchair scooter drone" speed="13.89" length="6.21" shape="371.41,861.64 375.80,866.05"/>
    </edge>
    <edge id=":1137992197_0" function="internal">
        <lane id=":1137992197_0_0" index="0" allow="pedestrian delivery bicycle" speed="3.65" length="4.67" shape="579.39,226.50 578.19,225.70 577.79,224.90 578.19,224.10 579.38,223.30"/>
    </edge>
    <edge id=":11415477447_0" function="internal">
        <lane id=":11415477447_0_0" index="0" allow="bus bicycle" speed="5.56" length="5.00" shape="801.70,681.52 799.94,676.84"/>
    </edge>
    <edge id=":11415477447_1" function="internal">
        <lane id=":11415477447_1_0" index="0" allow="bus bicycle" speed="3.65" length="1.44" shape="801.70,681.52 802.03,680.12"/>
    </edge>
    <edge id=":11415477447_4" function="internal">
        <lane id=":11415477447_4_0" index="0" allow="bus bicycle" speed="3.65" length="3.23" shape="802.03,680.12 802.63,679.46 803.52,679.56 804.69,680.40"/>
    </edge>
    <edge id=":11415477447_2" function="internal">
        <lane id=":11415477447_2_0" index="0" allow="bus bicycle" speed="5.56" length="5.00" shape="802.94,675.72 804.69,680.40"/>
    </edge>
    <edge id=":11415477447_3" function="internal">
        <lane id=":11415477447_3_0" index="0" allow="bus bicycle" speed="3.65" length="1.44" shape="802.94,675.72 802.61,677.12"/>
    </edge>
    <edge id=":11415477447_5" function="internal">
        <lane id=":11415477447_5_0" index="0" allow="bus bicycle" speed="3.65" length="3.23" shape="802.61,677.12 802.00,677.78 801.11,677.68 799.94,676.84"/>
    </edge>
    <edge id=":11415515695_0" function="internal">
        <lane id=":11415515695_0_0" index="0" allow="bus bicycle" speed="5.56" length="5.40" shape="868.39,867.12 866.14,862.22"/>
    </edge>
    <edge id=":11415515695_1" function="internal">
        <lane id=":11415515695_1_0" index="0" allow="bus bicycle" speed="3.65" length="1.44" shape="868.39,867.12 868.62,865.70"/>
    </edge>
    <edge id=":11415515695_4" function="internal">
        <lane id=":11415515695_4_0" index="0" allow="bus bicycle" speed="3.65" length="3.23" shape="868.62,865.70 869.18,865.00 870.07,865.03 871.30,865.79"/>
    </edge>
    <edge id=":11415515695_2" function="internal">
        <lane id=":11415515695_2_0" index="0" allow="bus bicycle" speed="5.56" length="5.39" shape="869.06,860.88 871.30,865.79"/>
    </edge>
    <edge id=":11415515695_3" function="internal">
        <lane id=":11415515695_3_0" index="0" allow="bus bicycle" speed="3.65" length="1.45" shape="869.06,860.88 868.83,862.31"/>
    </edge>
    <edge id=":11415515695_5" function="internal">
        <lane id=":11415515695_5_0" index="0" allow="bus bicycle" speed="3.65" length="3.24" shape="868.83,862.31 868.27,863.01 867.37,862.98 866.14,862.22"/>
    </edge>
    <edge id=":11415515786_0" function="internal">
        <lane id=":11415515786_0_0" index="0" disallow="pedestrian tram rail_urban rail rail_electric rail_fast ship container cable_car subway aircraft wheelchair scooter drone" speed="13.89" length="1.67" shape="791.70,186.70 790.08,186.27"/>
    </edge>
    <edge id=":11665506233_0" function="internal">
        <lane id=":11665506233_0_0" index="0" disallow="pedestrian tram rail_urban rail rail_electric rail_fast ship container cable_car subway aircraft wheelchair scooter drone" speed="8.33" length="8.21" shape="748.01,867.85 749.55,869.70 750.90,870.73 752.25,871.75 753.80,873.60"/>
        <lane id=":11665506233_0_1" index="1" disallow="pedestrian tram rail_urban rail rail_electric rail_fast ship container cable_car subway aircraft wheelchair scooter drone" speed="8.33" length="8.21" shape="748.01,867.85 749.14,869.98 749.57,871.62 750.01,873.26 751.14,875.38"/>
    </edge>
    <edge id=":11748400368_0" function="internal">
        <lane id=":11748400368_0_0" index="0" disallow="pedestrian tram rail_urban rail rail_electric rail_fast ship container cable_car subway aircraft wheelchair scooter drone" speed="13.89" length="7.68" shape="603.00,274.55 600.97,273.45 599.21,273.38 597.45,273.29 595.44,272.18"/>
        <lane id=":11748400368_0_1" index="1" disallow="pedestrian tram rail_urban rail rail_electric rail_fast ship container cable_car subway aircraft wheelchair scooter drone" speed="13.89" length="7.68" shape="603.00,274.55 597.57,269.78"/>
    </edge>
    <edge id=":11748400368_2" function="internal">
        <lane id=":11748400368_2_0" index="0" disallow="pedestrian tram rail_urban rail rail_electric rail_fast ship container cable_car subway aircraft wheelchair scooter drone" speed="13.89" length="7.19" shape="599.69,267.39 605.09,272.12"/>
    </edge>
    <edge id=":11777644335_0" function="internal">
        <lane id=":11777644335_0_0" index="0" allow="pedestrian delivery bicycle" speed="3.65" length="4.67" shape="644.95,787.57 644.26,786.30 644.27,785.41 645.00,784.89 646.43,784.73"/>
    </edge>
    <edge id=":11780615659_0" function="internal">
        <lane id=":11780615659_0_0" index="0" allow="pedestrian delivery bicycle" speed="3.65" length="4.67" shape="715.16,690.76 713.74,690.48 713.07,689.90 713.13,689.01 713.93,687.81"/>
    </edge>
    <edge id=":11780615660_0" function="internal">
        <lane id=":11780615660_0_0" index="0" allow="pedestrian delivery bicycle" speed="3.65" length="4.67" shape="739.21,678.72 740.61,679.08 741.25,679.70 741.14,680.58 740.28,681.74"/>
    </edge>
    <edge id=":11791070048_0" function="internal">
        <lane id=":11791070048_0_0" index="0" allow="emergency authority pedestrian" speed="2.78" length="5.11" width="2.00" shape="838.01,474.39 836.00,479.09"/>
    </edge>
    <edge id=":11791070048_1" function="internal">
        <lane id=":11791070048_1_0" index="0" allow="emergency authority pedestrian" speed="2.78" length="2.92" width="2.00" shape="838.01,474.39 837.27,474.90 836.71,474.94 836.34,474.52 836.16,473.64"/>
    </edge>
    <edge id=":11791070048_2" function="internal">
        <lane id=":11791070048_2_0" index="0" allow="emergency authority pedestrian" speed="2.78" length="5.12" width="2.00" shape="834.14,478.34 836.16,473.64"/>
    </edge>
    <edge id=":11791070048_3" function="internal">
        <lane id=":11791070048_3_0" index="0" allow="emergency authority pedestrian" speed="2.78" length="2.92" width="2.00" shape="834.14,478.34 834.89,477.84 835.45,477.79 835.82,478.21 836.00,479.09"/>
    </edge>
    <edge id=":11805515092_0" function="internal">
        <lane id=":11805515092_0_0" index="0" allow="pedestrian delivery bicycle" speed="3.65" length="4.67" shape="522.05,236.15 523.45,235.83 524.31,236.09 524.61,236.94 524.36,238.36"/>
    </edge>
    <edge id=":11805515093_0" function="internal">
        <lane id=":11805515093_0_0" index="0" allow="pedestrian delivery bicycle" speed="5.56" length="9.27" shape="512.62,255.11 505.86,248.76"/>
    </edge>
    <edge id=":11805515093_1" function="internal">
        <lane id=":11805515093_1_0" index="0" allow="pedestrian delivery bicycle" speed="5.56" length="10.14" shape="512.62,255.11 510.91,252.92 510.31,250.71 510.82,248.47 512.44,246.22"/>
    </edge>
    <edge id=":11805515093_2" function="internal">
        <lane id=":11805515093_2_0" index="0" allow="pedestrian delivery bicycle" speed="3.65" length="4.67" shape="512.62,255.11 512.31,253.70 512.58,252.85 513.42,252.55 514.84,252.81"/>
    </edge>
    <edge id=":11805515093_3" function="internal">
        <lane id=":11805515093_3_0" index="0" allow="pedestrian delivery bicycle" speed="5.05" length="4.99" shape="514.75,248.42 513.96,249.54 513.71,250.64 514.00,251.73 514.84,252.81"/>
    </edge>
    <edge id=":11805515093_4" function="internal">
        <lane id=":11805515093_4_0" index="0" allow="pedestrian delivery bicycle" speed="5.56" length="10.10" shape="514.75,248.42 512.58,250.14 510.37,250.77 508.13,250.31 505.86,248.76"/>
    </edge>
    <edge id=":11805515093_5" function="internal">
        <lane id=":11805515093_5_0" index="0" allow="pedestrian delivery bicycle" speed="3.65" length="4.67" shape="514.75,248.42 513.34,248.74 512.49,248.48 512.19,247.64 512.44,246.22"/>
    </edge>
    <edge id=":11805515093_6" function="internal">
        <lane id=":11805515093_6_0" index="0" allow="pedestrian delivery bicycle" speed="5.08" length="5.02" shape="508.02,246.40 509.14,247.17 510.25,247.39 511.35,247.07 512.44,246.22"/>
    </edge>
    <edge id=":11805515093_7" function="internal">
        <lane id=":11805515093_7_0" index="0" allow="pedestrian delivery bicycle" speed="5.56" length="9.36" shape="508.02,246.40 514.84,252.81"/>
    </edge>
    <edge id=":11805515093_8" function="internal">
        <lane id=":11805515093_8_0" index="0" allow="pedestrian delivery bicycle" speed="3.65" length="4.67" shape="508.02,246.40 508.37,247.80 508.12,248.66 507.29,248.98 505.86,248.76"/>
    </edge>
    <edge id=":11805515094_0" function="internal">
        <lane id=":11805515094_0_0" index="0" allow="pedestrian delivery bicycle" speed="3.65" length="4.67" shape="526.12,263.67 526.43,265.08 526.16,265.93 525.32,266.23 523.90,265.98"/>
    </edge>
    <edge id=":11805515115_0" function="internal">
        <lane id=":11805515115_0_0" index="0" allow="pedestrian delivery bicycle" speed="3.65" length="4.67" shape="483.73,283.24 482.31,283.00 481.62,282.43 481.65,281.54 482.42,280.32"/>
    </edge>
    <edge id=":11805515116_0" function="internal">
        <lane id=":11805515116_0_0" index="0" allow="pedestrian delivery bicycle" speed="3.65" length="4.67" shape="489.89,286.57 488.87,287.59 488.01,287.83 487.30,287.28 486.75,285.95"/>
    </edge>
    <edge id=":11805515117_0" function="internal">
        <lane id=":11805515117_0_0" index="0" allow="pedestrian delivery bicycle" speed="5.56" length="6.36" shape="492.41,271.37 493.53,272.85 494.01,274.09 494.49,275.32 495.63,276.78"/>
    </edge>
    <edge id=":11805515117_1" function="internal">
        <lane id=":11805515117_1_0" index="0" allow="pedestrian delivery bicycle" speed="5.56" length="6.77" shape="492.41,271.37 492.60,272.57 492.33,274.60 491.89,276.67 491.58,278.03"/>
    </edge>
    <edge id=":11805515117_2" function="internal">
        <lane id=":11805515117_2_0" index="0" allow="pedestrian delivery bicycle" speed="3.65" length="4.67" shape="492.41,271.37 492.68,272.79 492.40,273.63 491.55,273.91 490.13,273.62"/>
    </edge>
    <edge id=":11805515117_3" function="internal">
        <lane id=":11805515117_3_0" index="0" allow="pedestrian delivery bicycle" speed="5.56" length="4.15" shape="488.44,277.41 490.13,273.62"/>
    </edge>
    <edge id=":11805515117_4" function="internal">
        <lane id=":11805515117_4_0" index="0" allow="pedestrian delivery bicycle" speed="5.56" length="9.99" shape="488.44,277.41 489.37,274.95 490.88,274.03 492.97,274.64 495.63,276.78"/>
    </edge>
    <edge id=":11805515117_5" function="internal">
        <lane id=":11805515117_5_0" index="0" allow="pedestrian delivery bicycle" speed="3.65" length="4.67" shape="488.44,277.41 489.46,276.39 490.32,276.15 491.03,276.70 491.58,278.03"/>
    </edge>
    <edge id=":11806454736_0" function="internal">
        <lane id=":11806454736_0_0" index="0" allow="pedestrian delivery bicycle" speed="3.65" length="4.67" shape="574.01,464.36 572.57,464.48 571.76,464.11 571.57,463.23 572.01,461.86"/>
    </edge>
    <edge id=":11862120874_0" function="internal">