<?xml version="1.0" encoding="UTF-8"?>

<!-- generated on 2025-10-04 17:25:30.922398 by osmWebWizard.py UNKNOWN
<configuration>
    <net-file value="/Users/nicoloagostara/Sumo/2025-10-04-17-25-24/osm.net.xml.gz"/>
    <output-trip-file value="/Users/nicoloagostara/Sumo/2025-10-04-17-25-24/osm.passenger.trips.xml"/>
    <route-file value="/Users/nicoloagostara/Sumo/2025-10-04-17-25-24/osm.passenger.rou.xml"/>
    <prefix value="veh"/>
    <trip-attributes value="departLane=&quot;best&quot;"/>
    <fringe-start-attributes value="departSpeed=&quot;max&quot;"/>
    <vehicle-class value="passenger"/>
    <lanes value="True"/>
    <fringe-factor value="5"/>
    <allow-fringe.min-length value="1000.0"/>
    <edge-permission value="passenger"/>
    <via-edge-types value="highway.motorway,highway.motorway_link,highway.trunk_link,highway.primary_link,highway.secondary_link,highway.tertiary_link"/>
    <min-distance value="300.0"/>
    <min-distance.fringe value="10.0"/>
    <remove-loops value="True"/>
    <insertion-density value="12.0"/>
</configuration>
-->

<routes xmlns:xsi="http://www.w3.org/2001/XMLSchema-instance" xsi:noNamespaceSchemaLocation="http://sumo.dlr.de/xsd/routes_file.xsd">
    <vType id="veh_passenger" vClass="passenger"/>
    <trip id="veh0" depart="0.00" from="408534466#0" to="-1264561679#0" departLane="best" type="veh_passenger" departSpeed="max"/>
    <trip id="veh1" depart="17.12" from="1056324193#1" to="-92142133" departLane="best" type="veh_passenger"/>
    <trip id="veh2" depart="34.24" from="4803560#4" to="4743830#2" departLane="best" type="veh_passenger"/>
    <trip id="veh3" depart="51.37" from="15675937#0" to="-136617339#1" departLane="best" type="veh_passenger" departSpeed="max"/>
    <trip id="veh4" depart="68.49" from="-699663268#3" to="334810149#0" departLane="best" type="veh_passenger"/>
    <trip id="veh5" depart="85.61" from="-141885660#0" to="-5772448#0" departLane="best" type="veh_passenger"/>
    <trip id="veh6" depart="102.73" from="429288348" to="33693799#1" departLane="best" type="veh_passenger"/>
    <trip id="veh7" depart="119.85" from="-699663268#5" to="371344296#3" departLane="best" type="veh_passenger"/>
    <trip id="veh8" depart="136.97" from="143722134#1" to="-4803560#1" departLane="best" type="veh_passenger"/>
    <trip id="veh9" depart="154.10" from="69184467#2" to="14389224#2" departLane="best" type="veh_passenger"/>
    <trip id="veh10" depart="171.22" from="548370033#0" to="37684124#0" departLane="best" type="veh_passenger"/>
    <trip id="veh11" depart="188.34" from="536908734#2" to="526016651" departLane="best" type="veh_passenger"/>
    <trip id="veh12" depart="205.46" from="332455374#2" to="871499634" departLane="best" type="veh_passenger"/>
    <trip id="veh13" depart="222.58" from="146977152#1" to="33694486#1" departLane="best" type="veh_passenger"/>
    <trip id="veh14" depart="239.70" from="548370029" to="4398951#1" departLane="best" type="veh_passenger"/>
    <trip id="veh15" depart="256.83" from="548370035#1" to="35164364" departLane="best" type="veh_passenger"/>
    <trip id="veh16" depart="273.95" from="4734972#0" to="-146778072#1" departLane="best" type="veh_passenger" departSpeed="max"/>
    <trip id="veh17" depart="291.07" from="-699663268#9" to="1264561679#0" departLane="best" type="veh_passenger" departSpeed="max"/>
    <trip id="veh18" depart="308.19" from="-28630236#0" to="-942456035#0" departLane="best" type="veh_passenger"/>
    <trip id="veh19" depart="325.31" from="408534466#0" to="146977152#1" departLane="best" type="veh_passenger" departSpeed="max"/>
    <trip id="veh20" depart="342.43" from="408534466#0" to="429288348" departLane="best" type="veh_passenger" departSpeed="max"/>
    <trip id="veh21" depart="359.56" from="-548370033#1" to="526016651" departLane="best" type="veh_passenger"/>
    <trip id="veh22" depart="376.68" from="334810149#0" to="4748724#1" departLane="best" type="veh_passenger"/>
    <trip id="veh23" depart="393.80" from="548370032" to="543698012#0" departLane="best" type="veh_passenger"/>
    <trip id="veh24" depart="410.92" from="-699663268#9" to="-1411243431" departLane="best" type="veh_passenger" departSpeed="max"/>
    <trip id="veh25" depart="428.04" from="1264561679#0" to="1121964966#0" departLane="best" type="veh_passenger"/>
    <trip id="veh26" depart="445.16" from="-60505837#1" to="699663268#7" departLane="best" type="veh_passenger" departSpeed="max"/>
    <trip id="veh27" depart="462.29" from="4398951#0" to="20020535#3" departLane="best" type="veh_passenger"/>
    <trip id="veh28" depart="479.41" from="334810149#0" to="1121964966#0" departLane="best" type="veh_passenger"/>
    <trip id="veh29" depart="496.53" from="33693780#5" to="577252054" departLane="best" type="veh_passenger"/>
    <trip id="veh30" depart="513.65" from="147759323#0" to="-821304189#0" departLane="best" type="veh_passenger" departSpeed="max"/>
    <trip id="veh31" depart="530.77" from="-33695402#1" to="461211028" departLane="best" type="veh_passenger"/>
    <trip id="veh32" depart="547.89" from="-25614745#2" to="15676559#3" departLane="best" type="veh_passenger" departSpeed="max"/>
    <trip id="veh33" depart="565.02" from="821304189#0" to="550432837#0" departLane="best" type="veh_passenger"/>
    <trip id="veh34" depart="582.14" from="-1338300349" to="526016615#0" departLane="best" type="veh_passenger" departSpeed="max"/>
    <trip id="veh35" depart="599.26" from="4730406#0" to="33693780#6" departLane="best" type="veh_passenger" departSpeed="max"/>
    <trip id="veh36" depart="616.38" from="-35162766#0" to="25983494#1" departLane="best" type="veh_passenger"/>
    <trip id="veh37" depart="633.50" from="221220159#0" to="821304189#0" departLane="best" type="veh_passenger"/>
    <trip id="veh38" depart="650.62" from="550432833#0" to="1121964966#0" departLane="best" type="veh_passenger"/>
    <trip id="veh39" depart="667.75" from="27331142" to="-548370033#0" departLane="best" type="veh_passenger" departSpeed="max"/>
    <trip id="veh40" depart="684.87" from="5772448#0" to="550432841#1" departLane="best" type="veh_passenger" departSpeed="max"/>
    <trip id="veh41" depart="701.99" from="33695352#0" to="-4803560#0" departLane="best" type="veh_passenger"/>
    <trip id="veh42" depart="719.11" from="526016662#0" to="33693780#4" departLane="best" type="veh_passenger"/>
    <trip id="veh43" depart="736.23" from="-1056324193#1" to="141887992#3" departLane="best" type="veh_passenger"/>
    <trip id="veh44" depart="753.35" from="-136617339#1" to="670738521#0" departLane="best" type="veh_passenger"/>
    <trip id="veh45" depart="770.48" from="550432833#0" to="548370034" departLane="best" type="veh_passenger"/>
    <trip id="veh46" depart="787.60" from="550432833#0" to="8143580" departLane="best" type="veh_passenger"/>
    <trip id="veh47" depart="804.72" from="-28951462#1" to="332455382#0" departLane="best" type="veh_passenger"/>
    <trip id="veh48" depart="821.84" from="-25614745#2" to="536841066" departLane="best" type="veh_passenger" departSpeed="max"/>
    <trip id="veh49" depart="838.96" from="25614748#0" to="33694459#1" departLane="best" type="veh_passenger" departSpeed="max"/>
    <trip id="veh50" depart="856.08" from="10418288#4" to="571372263#0" departLane="best" type="veh_passenger"/>
    <trip id="veh51" depart="873.21" from="332455382#0" to="526016651" departLane="best" type="veh_passenger"/>
    <trip id="veh52" depart="890.33" from="-577305652#1" to="1411243432#1" departLane="best" type="veh_passenger"/>
    <trip id="veh53" depart="907.45" from="942456034#2" to="4730409#1" departLane="best" type="veh_passenger"/>
    <trip id="veh54" depart="924.57" from="-4399044" to="-92142139" departLane="best" type="veh_passenger"/>
    <trip id="veh55" depart="941.69" from="-699663268#9" to="-871499634" departLane="best" type="veh_passenger" departSpeed="max"/>
    <trip id="veh56" depart="958.81" from="-699663268#9" to="592017400" departLane="best" type="veh_passenger" departSpeed="max"/>
    <trip id="veh57" depart="975.94" from="548370035#1" to="-248669680" departLane="best" type="veh_passenger"/>
    <trip id="veh58" depart="993.06" from="-60505837#1" to="-35162766#0" departLane="best" type="veh_passenger" departSpeed="max"/>
    <trip id="veh59" depart="1010.18" from="25614748#0" to="543888805" departLane="best" type="veh_passenger" departSpeed="max"/>
    <trip id="veh60" depart="1027.30" from="536908734#2" to="-571372263#0" departLane="best" type="veh_passenger"/>
    <trip id="veh61" depart="1044.42" from="-331553004#1" to="25983494#1" departLane="best" type="veh_passenger" departSpeed="max"/>
    <trip id="veh62" depart="1061.54" from="15676292#1" to="28951462#3" departLane="best" type="veh_passenger"/>
    <trip id="veh63" depart="1078.67" from="4803560#0" to="4734976#1" departLane="best" type="veh_passenger" departSpeed="max"/>
    <trip id="veh64" depart="1095.79" from="92142139" to="-26127384#3" departLane="best" type="veh_passenger"/>
    <trip id="veh65" depart="1112.91" from="147759323#0" to="14389229#0" departLane="best" type="veh_passenger" departSpeed="max"/>
    <trip id="veh66" depart="1130.03" from="548370035#1" to="1056324193#1" departLane="best" type="veh_passenger"/>
    <trip id="veh67" depart="1147.15" from="-550432841#1" to="27014785#0" departLane="best" type="veh_passenger" departSpeed="max"/>
    <trip id="veh68" depart="1164.27" from="-871499634" to="609970340#1" departLane="best" type="veh_passenger"/>
    <trip id="veh69" depart="1181.40" from="20020535#2" to="550432837#0" departLane="best" type="veh_passenger"/>
    <trip id="veh70" depart="1198.52" from="332455400" to="-146778074#2" departLane="best" type="veh_passenger"/>
    <trip id="veh71" depart="1215.64" from="821304189#0" to="609970356" departLane="best" type="veh_passenger"/>
    <trip id="veh72" depart="1232.76" from="25983496#3" to="-699663268#3" departLane="best" type="veh_passenger"/>
    <trip id="veh73" depart="1249.88" from="146977152#3" to="92142139" departLane="best" type="veh_passenger"/>
    <trip id="veh74" depart="1267.00" from="69184467#2" to="942456034#2" departLane="best" type="veh_passenger"/>
    <trip id="veh75" depart="1284.13" from="332455407#0" to="525958045#3" departLane="best" type="veh_passenger"/>
    <trip id="veh76" depart="1301.25" from="-532158278#1" to="1338300349" departLane="best" type="veh_passenger" departSpeed="max"/>
    <trip id="veh77" depart="1318.37" from="821304189#0" to="35164364" departLane="best" type="veh_passenger"/>
    <trip id="veh78" depart="1335.49" from="332455382#2" to="532158278#0" departLane="best" type="veh_passenger"/>
    <trip id="veh79" depart="1352.61" from="-24978195#0" to="371344296#0" departLane="best" type="veh_passenger"/>
    <trip id="veh80" depart="1369.73" from="27331142" to="548529066#0" departLane="best" type="veh_passenger" departSpeed="max"/>
    <trip id="veh81" depart="1386.86" from="-532158278#1" to="860373108#0" departLane="best" type="veh_passenger" departSpeed="max"/>
    <trip id="veh82" depart="1403.98" from="-28630236#0" to="-550432836" departLane="best" type="veh_passenger"/>
    <trip id="veh83" depart="1421.10" from="33693799#1" to="4743830#1" departLane="best" type="veh_passenger"/>
    <trip id="veh84" depart="1438.22" from="571372263#1" to="1056324193#0" departLane="best" type="veh_passenger"/>
    <trip id="veh85" depart="1455.34" from="33693799#1" to="4398951#1" departLane="best" type="veh_passenger"/>
    <trip id="veh86" depart="1472.46" from="15675937#0" to="371344296#0" departLane="best" type="veh_passenger" departSpeed="max"/>
    <trip id="veh87" depart="1489.59" from="-596103315#1" to="525958045#2" departLane="best" type="veh_passenger"/>
    <trip id="veh88" depart="1506.71" from="1322481692" to="532158278#1" departLane="best" type="veh_passenger"/>
    <trip id="veh89" depart="1523.83" from="-25983494#0" to="28630236#0" departLane="best" type="veh_passenger"/>
    <trip id="veh90" depart="1540.95" from="10418288#4" to="699663268#0" departLane="best" type="veh_passenger"/>
    <trip id="veh91" depart="1558.07" from="550432834#0" to="571372263#2" departLane="best" type="veh_passenger"/>
    <trip id="veh92" depart="1575.20" from="146778072#1" to="-4803560#4" departLane="best" type="veh_passenger"/>
    <trip id="veh93" depart="1592.32" from="33695402#1" to="92142139" departLane="best" type="veh_passenger"/>
    <trip id="veh94" depart="1609.44" from="543888805" to="1338300349" departLane="best" type="veh_passenger"/>
    <trip id="veh95" depart="1626.56" from="4572161#0" to="699663268#7" departLane="best" type="veh_passenger"/>
    <trip id="veh96" depart="1643.68" from="4734976#1" to="-577305652#1" departLane="best" type="veh_passenger"/>
    <trip id="veh97" depart="1660.80" from="408534466#0" to="1121964966#0" departLane="best" type="veh_passenger" departSpeed="max"/>
    <trip id="veh98" depart="1677.93" from="26127384#3" to="592017400" departLane="best" type="veh_passenger"/>
    <trip id="veh99" depart="1695.05" from="-1111971585#1" to="536908734#1" departLane="best" type="veh_passenger"/>
    <trip id="veh100" depart="1712.17" from="408534466#0" to="1121964966#0" departLane="best" type="veh_passenger" departSpeed="max"/>
    <trip id="veh101" depart="1729.29" from="498169246" to="33694459#3" departLane="best" type="veh_passenger"/>
    <trip id="veh102" depart="1746.41" from="-26127384#0" to="5772448#1" departLane="best" type="veh_passenger"/>
    <trip id="veh103" depart="1763.53" from="548370030#0" to="371344296#0" departLane="best" type="veh_passenger"/>
    <trip id="veh104" depart="1780.66" from="-526016665#1" to="-33695352#1" departLane="best" type="veh_passenger"/>
    <trip id="veh105" depart="1797.78" from="536841066" to="550432837#0" departLane="best" type="veh_passenger"/>
    <trip id="veh106" depart="1814.90" from="-871499634" to="-27405403#0" departLane="best" type="veh_passenger"/>
    <trip id="veh107" depart="1832.02" from="526016665#0" to="577246823#0" departLane="best" type="veh_passenger"/>
    <trip id="veh108" depart="1849.14" from="147759323#3" to="4398951#1" departLane="best" type="veh_passenger"/>
    <trip id="veh109" depart="1866.26" from="-532158278#1" to="670738521#0" departLane="best" type="veh_passenger" departSpeed="max"/>
    <trip id="veh110" depart="1883.39" from="548370036" to="889067535" departLane="best" type="veh_passenger"/>
    <trip id="veh111" depart="1900.51" from="-1411243431" to="526016660#1" departLane="best" type="veh_passenger"/>
    <trip id="veh112" depart="1917.63" from="141885660#2" to="670738521#0" departLane="best" type="veh_passenger"/>
    <trip id="veh113" depart="1934.75" from="536908725#1" to="550432841#1" departLane="best" type="veh_passenger"/>
    <trip id="veh114" depart="1951.87" from="527481482" to="-28630236#0" departLane="best" type="veh_passenger"/>
    <trip id="veh115" depart="1968.99" from="548529065" to="550432834#0" departLane="best" type="veh_passenger"/>
    <trip id="veh116" depart="1986.12" from="-699663268#6" to="548370031#2" departLane="best" type="veh_passenger"/>
    <trip id="veh117" depart="2003.24" from="248669680" to="140726947#0" departLane="best" type="veh_passenger"/>
    <trip id="veh118" depart="2020.36" from="536841066" to="-942456034#0" departLane="best" type="veh_passenger"/>
    <trip id="veh119" depart="2037.48" from="-1411243431" to="-5772448#0" departLane="best" type="veh_passenger"/>
    <trip id="veh120" depart="2054.60" from="8143580" to="1165309879#2" departLane="best" type="veh_passenger"/>
    <trip id="veh121" depart="2071.72" from="92142136" to="33693780#6" departLane="best" type="veh_passenger"/>
    <trip id="veh122" depart="2088.85" from="602621681" to="-28951462#2" departLane="best" type="veh_passenger"/>
    <trip id="veh123" depart="2105.97" from="821304189#0" to="-548370033#0" departLane="best" type="veh_passenger"/>
    <trip id="veh124" depart="2123.09" from="699663268#5" to="1121964966#0" departLane="best" type="veh_passenger"/>
    <trip id="veh125" depart="2140.21" from="-33695352#2" to="25983494#1" departLane="best" type="veh_passenger"/>
    <trip id="veh126" depart="2157.33" from="146977154" to="35164364" departLane="best" type="veh_passenger" departSpeed="max"/>
    <trip id="veh127" depart="2174.45" from="146778063#0" to="-248669678#0" departLane="best" type="veh_passenger"/>
    <trip id="veh128" depart="2191.58" from="1264561679#0" to="548529065" departLane="best" type="veh_passenger"/>
    <trip id="veh129" depart="2208.70" from="4743830#1" to="1338300349" departLane="best" type="veh_passenger"/>
    <trip id="veh130" depart="2225.82" from="147759323#0" to="1338300349" departLane="best" type="veh_passenger" departSpeed="max"/>
    <trip id="veh131" depart="2242.94" from="-1056324193#1" to="120613502#1" departLane="best" type="veh_passenger"/>
    <trip id="veh132" depart="2260.06" from="15676559#2" to="35393372#0" departLane="best" type="veh_passenger"/>
    <trip id="veh133" depart="2277.18" from="4398951#0" to="28951462#2" departLane="best" type="veh_passenger"/>
    <trip id="veh134" depart="2294.31" from="25614748#0" to="577305652#0" departLane="best" type="veh_passenger" departSpeed="max"/>
    <trip id="veh135" depart="2311.43" from="-28630236#1" to="334810150#1" departLane="best" type="veh_passenger"/>
    <trip id="veh136" depart="2328.55" from="543888805" to="532158278#1" departLane="best" type="veh_passenger"/>
    <trip id="veh137" depart="2345.67" from="4730406#0" to="-92142139" departLane="best" type="veh_passenger" departSpeed="max"/>
    <trip id="veh138" depart="2362.79" from="-5772448#1" to="-1264561679#0" departLane="best" type="veh_passenger"/>
    <trip id="veh139" depart="2379.91" from="-550432841#1" to="498169246" departLane="best" type="veh_passenger" departSpeed="max"/>
    <trip id="veh140" depart="2397.04" from="27014785#0" to="1053555711#0" departLane="best" type="veh_passenger"/>
    <trip id="veh141" depart="2414.16" from="4398951#0" to="-1056324193#0" departLane="best" type="veh_passenger"/>
    <trip id="veh142" depart="2431.28" from="52008411#1" to="536908734#1" departLane="best" type="veh_passenger"/>
    <trip id="veh143" depart="2448.40" from="-548529065" to="860373108#0" departLane="best" type="veh_passenger"/>
    <trip id="veh144" depart="2465.52" from="248669675#3" to="546792883#1" departLane="best" type="veh_passenger"/>
    <trip id="veh145" depart="2482.64" from="33693799#1" to="820530143#0" departLane="best" type="veh_passenger"/>
    <trip id="veh146" depart="2499.77" from="4743830#1" to="334810149#0" departLane="best" type="veh_passenger"/>
    <trip id="veh147" depart="2516.89" from="-871499634" to="4687956#1" departLane="best" type="veh_passenger"/>
    <trip id="veh148" depart="2534.01" from="-26127384#1" to="120613502#1" departLane="best" type="veh_passenger"/>
    <trip id="veh149" depart="2551.13" from="332455382#0" to="-4398951#1" departLane="best" type="veh_passenger"/>
    <trip id="veh150" depart="2568.25" from="-821304189#0" to="4950245#1" departLane="best" type="veh_passenger"/>
    <trip id="veh151" depart="2585.37" from="15675937#0" to="33693780#8" departLane="best" type="veh_passenger" departSpeed="max"/>
    <trip id="veh152" depart="2602.50" from="15675937#0" to="-596103315#1" departLane="best" type="veh_passenger" departSpeed="max"/>
    <trip id="veh153" depart="2619.62" from="15675937#0" to="592017400" departLane="best" type="veh_passenger" departSpeed="max"/>
    <trip id="veh154" depart="2636.74" from="33693780#5" to="4950246#1" departLane="best" type="veh_passenger"/>
    <trip id="veh155" depart="2653.86" from="548370035#0" to="536842076#1" departLane="best" type="veh_passenger"/>
    <trip id="veh156" depart="2670.98" from="146977154" to="-1056324193#0" departLane="best" type="veh_passenger" departSpeed="max"/>
    <trip id="veh157" depart="2688.10" from="14389224#2" to="532158278#1" departLane="best" type="veh_passenger"/>
    <trip id="veh158" depart="2705.23" from="548370034" to="821304189#0" departLane="best" type="veh_passenger"/>
    <trip id="veh159" depart="2722.35" from="15675937#0" to="527481483#1" departLane="best" type="veh_passenger" departSpeed="max"/>
    <trip id="veh160" depart="2739.47" from="332455398#0" to="37684124#0" departLane="best" type="veh_passenger"/>
    <trip id="veh161" depart="2756.59" from="15801838#0" to="-136617339#1" departLane="best" type="veh_passenger"/>
    <trip id="veh162" depart="2773.71" from="141887992#1" to="4748724#1" departLane="best" type="veh_passenger"/>
    <trip id="veh163" depart="2790.83" from="147759323#2" to="-532158278#0" departLane="best" type="veh_passenger"/>
    <trip id="veh164" depart="2807.96" from="25614745#1" to="-33695352#1" departLane="best" type="veh_passenger"/>
    <trip id="veh165" depart="2825.08" from="35393372#0" to="-1344040643" departLane="best" type="veh_passenger"/>
    <trip id="veh166" depart="2842.20" from="146977154" to="35162766#0" departLane="best" type="veh_passenger" departSpeed="max"/>
    <trip id="veh167" depart="2859.32" from="-141885660#2" to="4730408#2" departLane="best" type="veh_passenger"/>
    <trip id="veh168" depart="2876.44" from="-248669676#0" to="15676559#1" departLane="best" type="veh_passenger"/>
    <trip id="veh169" depart="2893.56" from="-1344040643" to="33693780#7" departLane="best" type="veh_passenger"/>
    <trip id="veh170" depart="2910.69" from="968872143" to="146778063#0" departLane="best" type="veh_passenger"/>
    <trip id="veh171" depart="2927.81" from="609970340#1" to="-5772448#0" departLane="best" type="veh_passenger"/>
    <trip id="veh172" depart="2944.93" from="-136617339#1" to="-4803560#0" departLane="best" type="veh_passenger"/>
    <trip id="veh173" depart="2962.05" from="4734972#0" to="536908725#0" departLane="best" type="veh_passenger" departSpeed="max"/>
    <trip id="veh174" depart="2979.17" from="-548370033#0" to="378128430#1" departLane="best" type="veh_passenger"/>
    <trip id="veh175" depart="2996.29" from="50003696#4" to="-28951462#2" departLane="best" type="veh_passenger"/>
    <trip id="veh176" depart="3013.42" from="543888806#0" to="860373108#0" departLane="best" type="veh_passenger"/>
    <trip id="veh177" depart="3030.54" from="-33695352#2" to="-1344040643" departLane="best" type="veh_passenger"/>
    <trip id="veh178" depart="3047.66" from="548370033#1" to="37684124#0" departLane="best" type="veh_passenger"/>
    <trip id="veh179" depart="3064.78" from="-4399044" to="92142139" departLane="best" type="veh_passenger"/>
    <trip id="veh180" depart="3081.90" from="526016665#0" to="146545821#1" departLane="best" type="veh_passenger"/>
    <trip id="veh181" depart="3099.02" from="27331400#0" to="14389428#0" departLane="best" type="veh_passenger"/>
    <trip id="veh182" depart="3116.15" from="-332455406#1" to="860373108#0" departLane="best" type="veh_passenger"/>
    <trip id="veh183" depart="3133.27" from="408534466#0" to="548370033#1" departLane="best" type="veh_passenger" departSpeed="max"/>
    <trip id="veh184" depart="3150.39" from="4734972#0" to="25983494#1" departLane="best" type="veh_passenger" departSpeed="max"/>
    <trip id="veh185" depart="3167.51" from="4803560#1" to="860373108#0" departLane="best" type="veh_passenger"/>
    <trip id="veh186" depart="3184.63" from="1051820108#1" to="548529066#0" departLane="best" type="veh_passenger"/>
    <trip id="veh187" depart="3201.76" from="548370029" to="-25614748#0" departLane="best" type="veh_passenger"/>
    <trip id="veh188" depart="3218.88" from="550432834#0" to="1053555711#0" departLane="best" type="veh_passenger"/>
    <trip id="veh189" depart="3236.00" from="24978194#1" to="429288348" departLane="best" type="veh_passenger"/>
    <trip id="veh190" depart="3253.12" from="146977152#3" to="-136617339#1" departLane="best" type="veh_passenger"/>
    <trip id="veh191" depart="3270.24" from="548370033#1" to="-548529065" departLane="best" type="veh_passenger"/>
    <trip id="veh192" depart="3287.36" from="-60505837#1" to="546792883#1" departLane="best" type="veh_passenger" departSpeed="max"/>
    <trip id="veh193" depart="3304.49" from="-28951462#1" to="526016615#0" departLane="best" type="veh_passenger"/>
    <trip id="veh194" depart="3321.61" from="26127384#3" to="53275982#0" departLane="best" type="veh_passenger"/>
    <trip id="veh195" depart="3338.73" from="27014767#0" to="543888836" departLane="best" type="veh_passenger"/>
    <trip id="veh196" depart="3355.85" from="-331553004#1" to="-871499634" departLane="best" type="veh_passenger" departSpeed="max"/>
    <trip id="veh197" depart="3372.97" from="33693780#4" to="331553004#1" departLane="best" type="veh_passenger"/>
    <trip id="veh198" depart="3390.09" from="-92142133" to="-332455381" departLane="best" type="veh_passenger"/>
    <trip id="veh199" depart="3407.22" from="-550432841#1" to="-332455381" departLane="best" type="veh_passenger" departSpeed="max"/>
    <trip id="veh200" depart="3424.34" from="332455374#2" to="536841066" departLane="best" type="veh_passenger"/>
    <trip id="veh201" depart="3441.46" from="-550432841#1" to="-699663268#6" departLane="best" type="veh_passenger" departSpeed="max"/>
    <trip id="veh202" depart="3458.58" from="25983496#2" to="526016640#1" departLane="best" type="veh_passenger"/>
    <trip id="veh203" depart="3475.70" from="889067535" to="33693780#2" departLane="best" type="veh_passenger"/>
    <trip id="veh204" depart="3492.82" from="1111971585#0" to="-27405403#0" departLane="best" type="veh_passenger" departSpeed="max"/>
    <trip id="veh205" depart="3509.95" from="-550432836" to="-1111971585#0" departLane="best" type="veh_passenger"/>
    <trip id="veh206" depart="3527.07" from="871499634" to="33694486#2" departLane="best" type="veh_passenger"/>
    <trip id="veh207" depart="3544.19" from="4730416#4" to="-332455406#1" departLane="best" type="veh_passenger"/>
    <trip id="veh208" depart="3561.31" from="548529065" to="35164364" departLane="best" type="veh_passenger"/>
    <trip id="veh209" depart="3578.43" from="25614745#2" to="26127384#3" departLane="best" type="veh_passenger"/>
    <trip id="veh210" depart="3595.55" from="-550432841#1" to="-146778074#2" departLane="best" type="veh_passenger" departSpeed="max"/>
</routes>
