<?xml version="1.0" encoding="UTF-8"?>

<!-- generated on 2025-10-04 17:46:46 by Eclipse SUMO duarouter Version 1.24.0
<duarouterConfiguration xmlns:xsi="http://www.w3.org/2001/XMLSchema-instance" xsi:noNamespaceSchemaLocation="http://sumo.dlr.de/xsd/duarouterConfiguration.xsd">

    <input>
        <net-file value="2025-10-04-17-25-24/osm.net.xml.gz"/>
        <route-files value="2025-10-04-17-25-24/osm.passenger.trips.xml"/>
    </input>

    <output>
        <output-file value="2025-10-04-17-25-24/osm.passenger.rou.xml"/>
    </output>

</duarouterConfiguration>
-->

<routes xmlns:xsi="http://www.w3.org/2001/XMLSchema-instance" xsi:noNamespaceSchemaLocation="http://sumo.dlr.de/xsd/routes_file.xsd">
    <vType id="veh_passenger" vClass="passenger"/>
    <vehicle id="veh0" type="veh_passenger" depart="0.00" departLane="best" departSpeed="max">
        <route edges="408534466#0 526016652#1 526016654#0 1165309879#1 1165309879#2 526016618#1 526016615#0 35162766#0 942456034#0 942456034#1 942456034#2 -550432836 -550432837#0 -33695402#1 -1264561679#0"/>
    </vehicle>
    <vehicle id="veh1" type="veh_passenger" depart="17.12" departLane="best">
        <route edges="1056324193#1 11918011 550432833#0 525958045#1 525958045#2 525958045#3 33693225 550432834#0 33693799#1 33693780#1 33693780#2 33693780#3 33693780#4 33693780#5 33693780#6 33693780#7 33693780#8 543888804#0 543888805 332455398#0 332455398#1 332455374#0 332455374#2 548370034 548370033#0 548370033#1 548370032 -146778067#1 -146778067#0 -146778074#5 -24978203#1 -24978203#0 -146545821#1 -146545821#0 -92142133"/>
    </vehicle>
    <vehicle id="veh2" type="veh_passenger" depart="34.24" departLane="best">
        <route edges="4803560#4 968872143 548370037#0 4572161#0 4572161#1 543888836 526016653#4 526016651 526016643#1 -536841066 -28630236#1 -28630236#0 871499634 548529065 526016665#0 4533226#1 699663268#0 699663268#3 4743830#1 4743830#2"/>
    </vehicle>
    <vehicle id="veh3" type="veh_passenger" depart="51.37" departLane="best" departSpeed="max">
        <route edges="15675937#0 548529066#0 526016652#1 526016654#0 1165309879#1 1165309879#2 526016618#1 526016615#0 33693799#1 33693780#1 33693780#2 33693780#3 33693780#4 33693780#5 33693780#6 33693780#7 33693780#8 543888804#0 543888805 332455398#0 332455398#1 332455374#0 332455374#2 548370034 548370033#0 548370033#1 548370032 4398951#0 4398951#1 92142139 92142136 -332455406#1 136617339#1 532158278#0 532158278#1 -532158278#1 -532158278#0 -136617339#1"/>
    </vehicle>
    <vehicle id="veh4" type="veh_passenger" depart="68.49" departLane="best">
        <route edges="-699663268#3 -699663268#1 -4533226#1 378128430#1 217451769 20020535#1 20020535#2 20020535#3 20020535#5 609970356 1322481692 27014785#0 1165309879#1 1165309879#2 526016618#1 526016615#0 33693799#1 33693780#1 33693780#2 33693780#3 33693780#4 33693780#5 33693780#6 33693780#7 33693780#8 543888804#0 543888805 332455398#0 332455398#1 332455374#0 332455374#2 548370034 548370033#0 548370033#1 548370032 -548370032 -548370033#1 -548370033#0 4730416#0 4730416#4 548370035#0 548370035#1 548370031#2 334810149#0"/>
    </vehicle>
    <vehicle id="veh5" type="veh_passenger" depart="85.61" departLane="best">
        <route edges="-141885660#0 141885660#0 4803560#4 968872143 548370037#0 4572161#0 4572161#1 543888836 526016653#4 526016651 526016643#1 -536841066 -5772448#1 -5772448#0"/>
    </vehicle>
    <vehicle id="veh6" type="veh_passenger" depart="102.73" departLane="best">
        <route edges="429288348 10755051 332455407#0 140726947#0 140726947#1 140726947#2 609970340#0 609970340#1 50003696#4 35393372#0 4399044 27014767#0 20020535#1 20020535#2 20020535#3 20020535#5 609970356 1322481692 27014785#0 1165309879#1 1165309879#2 526016618#1 526016615#0 33693799#1"/>
    </vehicle>
    <vehicle id="veh7" type="veh_passenger" depart="119.85" departLane="best">
        <route edges="-699663268#5 -699663268#3 -699663268#1 -4533226#1 378128430#1 217451769 1047288491 429288348 10755051 332455407#0 140726947#0 140726947#1 140726947#2 609970340#0 609970340#1 536908734#1 536908734#2 536908725#0 536908725#1 670738521#0 371344296#0 371344296#1 371344296#3"/>
    </vehicle>
    <vehicle id="veh8" type="veh_passenger" depart="136.97" departLane="best">
        <route edges="143722134#1 143722134#2 143722134#3 143722134#4 143722134#6 35162947#1 -1344040643 -92142139 -4398951#1 -4398951#0 -548370032 -548370033#1 -548370033#0 4730416#0 4730416#4 548370035#0 548370035#1 548370031#2 334810149#0 334810149#1 548370029 548370028#1 548370030#0 -4803560#4 -4803560#1"/>
    </vehicle>
    <vehicle id="veh9" type="veh_passenger" depart="154.10" departLane="best">
        <route edges="69184467#2 580414174 8143580 53275982#0 4734976#0 4734976#1 601313541 571372263#0 571372263#1 571372263#2 35162947#1 -1344040643 -92142139 -4398951#1 -4398951#0 -548370032 -548370033#1 -548370033#0 4730416#0 4730416#4 548370035#0 548370035#1 548370031#2 334810149#0 334810149#1 15676292#1 15676292#2 332455382#0 332455382#1 14389224#2"/>
    </vehicle>
    <vehicle id="veh10" type="veh_passenger" depart="171.22" departLane="best">
        <route edges="548370033#0 548370033#1 548370032 4398951#0 4398951#1 92142139 92142136 1411243432#1 1411243431 27331400#0 592017400 4799414#0 37684124#0"/>
    </vehicle>
    <vehicle id="veh11" type="veh_passenger" depart="188.34" departLane="best">
        <route edges="536908734#2 25983496#2 25983496#3 -25983494#1 -25983494#0 4399044 27014767#0 20020535#1 20020535#2 20020535#3 20020535#5 609970356 1322481692 27014785#0 526016653#4 526016651"/>
    </vehicle>
    <vehicle id="veh12" type="veh_passenger" depart="205.46" departLane="best">
        <route edges="332455374#2 548370034 548370033#0 548370033#1 548370032 -548370032 -548370033#1 -548370033#0 4730416#0 4730416#4 548370035#0 548370035#1 548370031#2 334810149#0 334810149#1 548370029 548370028#1 548370030#0 968872143 548370037#0 4572161#0 4572161#1 543888836 526016653#4 526016651 526016643#1 -536841066 -28630236#1 -28630236#0 871499634"/>
    </vehicle>
    <vehicle id="veh13" type="veh_passenger" depart="222.58" departLane="best">
        <route edges="146977152#1 146977152#3 1056324193#0 1056324193#1 11918011 550432833#0 525958045#1 525958045#2 525958045#3 33693225 550432834#0 33693799#1 33694486#1"/>
    </vehicle>
    <vehicle id="veh14" type="veh_passenger" depart="239.70" departLane="best">
        <route edges="548370029 15676559#1 15676559#2 15676559#3 15676559#4 33693780#3 33693780#4 33693780#5 33693780#6 33693780#7 33693780#8 543888804#0 543888805 332455398#0 332455398#1 332455374#0 332455374#2 548370034 548370033#0 548370033#1 548370032 4398951#0 4398951#1"/>
    </vehicle>
    <vehicle id="veh15" type="veh_passenger" depart="256.83" departLane="best">
        <route edges="548370035#1 548370031#2 334810149#0 334810149#1 548370029 15676559#1 15676559#2 15676559#3 15676559#4 33693780#3 33693780#4 33693780#5 33693780#6 33693780#7 33693780#8 543888804#0 543888805 332455398#0 332455398#1 332455374#0 332455374#2 548370034 548370033#0 548370033#1 548370032 4398951#0 4398951#1 92142139 92142136 1411243432#1 1411243431 27331400#0 27331400#1 35164364"/>
    </vehicle>
    <vehicle id="veh16" type="veh_passenger" depart="273.95" departLane="best" departSpeed="max">
        <route edges="4734972#0 4734976#0 4734976#1 601313541 571372263#0 571372263#1 571372263#2 35162947#1 -1344040643 -92142139 -4398951#1 -4398951#0 -146778067#1 -146778067#0 146778072#1 -146778072#1"/>
    </vehicle>
    <vehicle id="veh17" type="veh_passenger" depart="291.07" departLane="best" departSpeed="max">
        <route edges="-699663268#9 -699663268#6 28951462#1 28951462#2 28951462#3 1111971585#1 1111971585#2 1111971585#3 577305652#0 821304189#0 217451769 20020535#1 20020535#2 20020535#3 20020535#5 609970356 1322481692 27014785#0 1165309879#1 1165309879#2 526016618#1 526016615#0 33693799#1 33694486#1 33694486#2 33694486#3 33694486#4 33695352#0 33695352#2 1264561679#0"/>
    </vehicle>
    <vehicle id="veh18" type="veh_passenger" depart="308.19" departLane="best">
        <route edges="-28630236#0 871499634 548529065 526016665#0 378128430#1 217451769 20020535#1 20020535#2 20020535#3 20020535#5 609970356 1322481692 27014785#0 1165309879#1 1165309879#2 526016618#1 526016615#0 35162766#0 942456034#0 942456034#1 942456034#2 -550432836 -942456035#0"/>
    </vehicle>
    <vehicle id="veh19" type="veh_passenger" depart="325.31" departLane="best" departSpeed="max">
        <route edges="408534466#0 526016652#1 526016654#0 1165309879#1 1165309879#2 526016618#1 526016615#0 33693799#1 33694486#1 33694486#2 33694486#3 33694486#4 1051820108#1 33694459#0 33694459#1 33694459#3 248669676#0 248669680 146977152#0 146977152#1"/>
    </vehicle>
    <vehicle id="veh20" type="veh_passenger" depart="342.43" departLane="best" departSpeed="max">
        <route edges="408534466#0 526016640#1 526016660#1 548529066#0 526016643#1 -536841066 -28630236#1 -28630236#0 871499634 548529065 526016665#0 378128430#1 217451769 1047288491 429288348"/>
    </vehicle>
    <vehicle id="veh21" type="veh_passenger" depart="359.56" departLane="best">
        <route edges="-548370033#1 -548370033#0 4730416#0 4730416#4 548370035#0 548370035#1 548370031#2 334810149#0 334810149#1 548370029 548370028#1 548370030#0 968872143 548370037#0 4572161#0 4572161#1 543888836 526016653#4 526016651"/>
    </vehicle>
    <vehicle id="veh22" type="veh_passenger" depart="376.68" departLane="best">
        <route edges="334810149#0 334810149#1 548370029 15676559#1 15676559#2 15676559#3 15676559#4 33693780#3 33693780#4 33693780#5 33693780#6 33693780#7 33693780#8 543888804#0 543888805 332455398#0 332455398#1 332455374#0 332455374#2 548370034 548370033#0 548370033#1 548370032 4398951#0 4398951#1 92142139 92142136 -332455406#1 -641490961#0 -571372263#1 -571372263#0 -601313541 461211028 577246823#0 577246823#1 32434209 820530143#0 4748724#1"/>
    </vehicle>
    <vehicle id="veh23" type="veh_passenger" depart="393.80" departLane="best">
        <route edges="548370032 -548370032 -548370033#1 -548370033#0 4730416#0 4730416#4 548370035#0 548370035#1 548370031#2 334810149#0 334810149#1 548370029 548370028#1 548370030#0 968872143 548370037#0 4572161#0 4572161#1 543888836 4730408#2 4730408#3 1053555711#0 4687935#1 524434352#2 543698012#0"/>
    </vehicle>
    <vehicle id="veh24" type="veh_passenger" depart="410.92" departLane="best" departSpeed="max">
        <route edges="-699663268#9 -699663268#6 28951462#1 28951462#2 28951462#3 1111971585#1 1111971585#2 1111971585#3 577305652#0 821304189#0 217451769 20020535#1 20020535#2 20020535#3 20020535#5 609970356 1322481692 27014785#0 1165309879#1 1165309879#2 526016618#1 526016615#0 33693799#1 33693780#1 33693780#2 33693780#3 33693780#4 33693780#5 33693780#6 33693780#7 33693780#8 543888804#0 543888805 332455398#0 332455398#1 332455374#0 332455374#2 548370034 548370033#0 548370033#1 548370032 4398951#0 4398951#1 92142139 92142136 1411243432#1 1411243431 -1411243431"/>
    </vehicle>
    <vehicle id="veh25" type="veh_passenger" depart="428.04" departLane="best">
        <route edges="1264561679#0 525958045#1 525958045#2 525958045#3 33693225 550432834#0 33693799#1 33693780#1 33693780#2 33693780#3 33693780#4 33693780#5 33693780#6 33693780#7 33693780#8 543888804#0 543888805 332455398#0 332455398#1 332455374#0 332455374#2 548370034 548370033#0 548370033#1 548370032 -146778067#1 -146778067#0 -146778074#5 -146778074#2 -146778074#1 -146778074#0 146778063#0 602621673 498169246 889067535 27410182 120613502#0 120613502#1 1121964966#0"/>
    </vehicle>
    <vehicle id="veh26" type="veh_passenger" depart="445.16" departLane="best" departSpeed="max">
        <route edges="-60505837#1 25983496#2 25983496#3 -25983494#1 -25983494#0 4399044 27014767#0 20020535#1 20020535#2 20020535#3 20020535#5 609970356 1322481692 27014785#0 526016653#4 526016651 526016643#1 -536841066 -28630236#1 -28630236#0 871499634 548529065 526016665#0 4533226#1 699663268#0 699663268#3 699663268#5 699663268#6 699663268#7"/>
    </vehicle>
    <vehicle id="veh27" type="veh_passenger" depart="462.29" departLane="best">
        <route edges="4398951#0 4398951#1 92142139 92142136 -1344040643 -92142139 -4398951#1 -4398951#0 -548370032 -548370033#1 -548370033#0 4730416#0 4730416#4 548370035#0 548370035#1 334810150#1 334810150#2 140726947#0 140726947#1 140726947#2 609970340#0 609970340#1 50003696#4 35393372#0 4399044 27014767#0 20020535#1 20020535#2 20020535#3"/>
    </vehicle>
    <vehicle id="veh28" type="veh_passenger" depart="479.41" departLane="best">
        <route edges="334810149#0 334810149#1 15676292#1 15676292#2 332455382#0 332455382#1 332455382#2 140726947#0 140726947#1 140726947#2 609970340#0 609970340#1 536908734#1 536908734#2 536908725#0 536908725#1 670738521#0 371344296#0 371344296#1 371344296#3 602621681 602621673 498169246 889067535 27410182 120613502#0 120613502#1 1121964966#0"/>
    </vehicle>
    <vehicle id="veh29" type="veh_passenger" depart="496.53" departLane="best">
        <route edges="33693780#5 33693780#6 33693780#7 33693780#8 543888804#0 543888805 332455398#0 332455398#1 332455374#0 332455374#2 548370034 548370033#0 548370033#1 548370032 -146778067#1 -146778067#0 -146778074#5 -146778074#2 -146778074#1 -146778074#0 146778063#0 602621673 498169246 889067535 27410182 120613502#0 577252054"/>
    </vehicle>
    <vehicle id="veh30" type="veh_passenger" depart="513.65" departLane="best" departSpeed="max">
        <route edges="147759323#0 147759323#1 147759323#2 147759323#3 143722134#1 143722134#2 143722134#3 143722134#4 143722134#6 35162947#1 -1344040643 -92142139 -4398951#1 -4398951#0 -548370032 -548370033#1 -548370033#0 4730416#0 4730416#4 548370035#0 548370035#1 548370031#2 334810149#0 334810149#1 548370029 548370028#1 548370030#0 968872143 548370037#0 4572161#0 4572161#1 543888836 526016653#4 526016651 526016643#1 -536841066 -28630236#1 -28630236#0 871499634 548529065 526016665#0 4533226#1 699663268#0 699663268#3 4743830#1 4743830#2 1111971585#2 1111971585#3 577305652#0 821304189#0 -821304189#0"/>
    </vehicle>
    <vehicle id="veh31" type="veh_passenger" depart="530.77" departLane="best">
        <route edges="-33695402#1 525958045#1 525958045#2 525958045#3 33693225 550432834#0 33693799#1 33693780#1 33693780#2 33693780#3 33693780#4 33693780#5 33693780#6 33693780#7 33693780#8 543888804#0 543888805 332455398#0 332455398#1 332455374#0 332455374#2 548370034 548370033#0 548370033#1 548370032 4398951#0 4398951#1 92142139 92142136 -332455406#1 -641490961#0 -571372263#1 -571372263#0 -601313541 461211028"/>
    </vehicle>
    <vehicle id="veh32" type="veh_passenger" depart="547.89" departLane="best" departSpeed="max">
        <route edges="-25614745#2 -25614745#1 52008411#0 52008411#1 -52008411#1 -52008411#0 25614745#1 25614745#2 -1344040643 -92142139 -4398951#1 -4398951#0 -548370032 -548370033#1 -548370033#0 4730416#0 4730416#4 548370035#0 548370035#1 548370031#2 334810149#0 334810149#1 548370029 15676559#1 15676559#2 15676559#3"/>
    </vehicle>
    <vehicle id="veh33" type="veh_passenger" depart="565.02" departLane="best">
        <route edges="821304189#0 217451769 20020535#1 20020535#2 20020535#3 20020535#5 609970356 1322481692 27014785#0 1165309879#1 1165309879#2 526016618#1 526016615#0 33693799#1 33694486#1 33694486#2 33694486#3 33694486#4 33695352#0 33695352#2 1264561679#0 33695402#1 550432837#0"/>
    </vehicle>
    <vehicle id="veh34" type="veh_passenger" depart="582.14" departLane="best" departSpeed="max">
        <route edges="-1338300349 -533316917 141887992#2 141887992#3 371344296#1 371344296#3 602621681 602621673 498169246 4950245#1 4950246#1 146778074#0 146778074#1 146778074#2 146778074#5 146778067#0 146778067#1 -548370032 -548370033#1 -548370033#0 4730416#0 4730416#4 548370035#0 548370035#1 548370031#2 334810149#0 334810149#1 548370029 548370028#1 548370030#0 968872143 548370037#0 4572161#0 4572161#1 543888836 1165309879#1 1165309879#2 526016618#1 526016615#0"/>
    </vehicle>
    <vehicle id="veh35" type="veh_passenger" depart="599.26" departLane="best" departSpeed="max">
        <route edges="4730406#0 4730406#1 27014767#0 20020535#1 20020535#2 20020535#3 20020535#5 609970356 1322481692 27014785#0 1165309879#1 1165309879#2 526016618#1 526016615#0 33693799#1 33693780#1 33693780#2 33693780#3 33693780#4 33693780#5 33693780#6"/>
    </vehicle>
    <vehicle id="veh36" type="veh_passenger" depart="616.38" departLane="best">
        <route edges="-35162766#0 33693799#1 33693780#1 33693780#2 33693780#3 33693780#4 33693780#5 33693780#6 33693780#7 33693780#8 543888804#0 332455400 332455401#0 15676292#1 15676292#2 332455382#0 332455382#1 332455382#2 140726947#0 140726947#1 140726947#2 609970340#0 609970340#1 50003696#4 35393372#0 25983494#0 25983494#1"/>
    </vehicle>
    <vehicle id="veh37" type="veh_passenger" depart="633.50" departLane="best">
        <route edges="221220159#0 14389428#0 332455374#0 332455374#2 548370034 548370033#0 548370033#1 548370032 -548370032 -548370033#1 -548370033#0 4730416#0 4730416#4 548370035#0 548370035#1 548370031#2 334810149#0 334810149#1 548370029 548370028#1 548370030#0 968872143 548370037#0 4572161#0 4572161#1 543888836 526016653#4 526016651 526016643#1 -536841066 -28630236#1 -28630236#0 871499634 548529065 526016665#0 4533226#1 699663268#0 699663268#3 4743830#1 4743830#2 1111971585#2 1111971585#3 577305652#0 821304189#0"/>
    </vehicle>
    <vehicle id="veh38" type="veh_passenger" depart="650.62" departLane="best">
        <route edges="550432833#0 525958045#1 525958045#2 525958045#3 33693225 550432834#0 33693799#1 33693780#1 33693780#2 33693780#3 33693780#4 33693780#5 33693780#6 33693780#7 33693780#8 543888804#0 543888805 332455398#0 332455398#1 332455374#0 332455374#2 548370034 548370033#0 548370033#1 548370032 -146778067#1 -146778067#0 -146778074#5 -146778074#2 -146778074#1 -146778074#0 146778063#0 602621673 498169246 889067535 27410182 120613502#0 120613502#1 1121964966#0"/>
    </vehicle>
    <vehicle id="veh39" type="veh_passenger" depart="667.75" departLane="best" departSpeed="max">
        <route edges="27331142 35164363 -1411243431 -596103315#1 -1344040643 -92142139 -4398951#1 -4398951#0 -548370032 -548370033#1 -548370033#0"/>
    </vehicle>
    <vehicle id="veh40" type="veh_passenger" depart="684.87" departLane="best" departSpeed="max">
        <route edges="5772448#0 5772448#1 536841066 526016662#0 526016640#1 526016660#1 548529066#0 526016652#1 526016654#0 1165309879#1 1165309879#2 526016618#1 526016615#0 35162766#0 942456034#0 942456034#1 942456034#2 -550432836 550432841#1"/>
    </vehicle>
    <vehicle id="veh41" type="veh_passenger" depart="701.99" departLane="best">
        <route edges="33695352#0 33695352#2 1264561679#0 525958045#1 525958045#2 525958045#3 33693225 550432834#0 141885659#1 141885660#0 -4803560#1 -4803560#0"/>
    </vehicle>
    <vehicle id="veh42" type="veh_passenger" depart="719.11" departLane="best">
        <route edges="526016662#0 526016640#1 526016660#1 548529066#0 526016652#1 526016654#0 1165309879#1 1165309879#2 526016618#1 526016615#0 33693799#1 33693780#1 33693780#2 33693780#3 33693780#4"/>
    </vehicle>
    <vehicle id="veh43" type="veh_passenger" depart="736.23" departLane="best">
        <route edges="-1056324193#1 1056324193#1 11918011 550432833#0 525958045#1 525958045#2 525958045#3 33693225 550432834#0 33693799#1 33693780#1 33693780#2 33693780#3 33693780#4 33693780#5 33693780#6 33693780#7 33693780#8 543888804#0 332455400 332455401#0 15676292#1 15676292#2 332455382#0 332455382#1 332455382#2 140726947#0 140726947#1 140726947#2 609970340#0 609970340#1 536908734#1 536908734#2 60505837#1 527481482 141887992#2 141887992#3"/>
    </vehicle>
    <vehicle id="veh44" type="veh_passenger" depart="753.35" departLane="best">
        <route edges="-136617339#1 35162947#1 -1344040643 -92142139 -4398951#1 -4398951#0 -548370032 -548370033#1 -548370033#0 4730416#0 4730416#4 548370035#0 548370035#1 334810150#1 334810150#2 140726947#0 140726947#1 140726947#2 609970340#0 609970340#1 536908734#1 536908734#2 536908725#0 536908725#1 670738521#0"/>
    </vehicle>
    <vehicle id="veh45" type="veh_passenger" depart="770.48" departLane="best">
        <route edges="550432833#0 525958045#1 525958045#2 525958045#3 33693225 550432834#0 33693799#1 33693780#1 33693780#2 33693780#3 33693780#4 33693780#5 33693780#6 33693780#7 33693780#8 543888804#0 543888805 332455398#0 332455398#1 332455374#0 332455374#2 548370034"/>
    </vehicle>
    <vehicle id="veh46" type="veh_passenger" depart="787.60" departLane="best">
        <route edges="550432833#0 525958045#1 525958045#2 525958045#3 33693225 550432834#0 33693799#1 33693780#1 33693780#2 33693780#3 33693780#4 33693780#5 33693780#6 33693780#7 33693780#8 543888804#0 543888805 332455398#0 332455398#1 332455374#0 332455374#2 548370034 548370033#0 548370033#1 548370032 4398951#0 4398951#1 92142139 92142136 1411243432#1 1411243431 27331400#0 592017400 4799414#0 69184467#2 580414174 8143580"/>
    </vehicle>
    <vehicle id="veh47" type="veh_passenger" depart="804.72" departLane="best">
        <route edges="-28951462#1 28951462#1 28951462#2 28951462#3 1111971585#1 1111971585#2 1111971585#3 577305652#0 821304189#0 217451769 1047288491 429288348 10755051 332455407#0 -332455382#2 -332455382#1 -332455382#0 332455382#0"/>
    </vehicle>
    <vehicle id="veh48" type="veh_passenger" depart="821.84" departLane="best" departSpeed="max">
        <route edges="-25614745#2 -25614745#1 52008411#0 52008411#1 -52008411#1 -52008411#0 25614745#1 25614745#2 -1344040643 -92142139 -4398951#1 -4398951#0 -548370032 -548370033#1 -548370033#0 4730416#0 4730416#4 548370035#0 548370035#1 548370031#2 334810149#0 334810149#1 548370029 548370028#1 548370030#0 968872143 548370037#0 4572161#0 4572161#1 543888836 526016653#4 526016651 526016643#1 -536841066 536841066"/>
    </vehicle>
    <vehicle id="veh49" type="veh_passenger" depart="838.96" departLane="best" departSpeed="max">
        <route edges="25614748#0 25614748#1 146778074#0 146778074#1 146778074#2 146778074#5 146778067#0 146778067#1 -548370032 -548370033#1 -548370033#0 4730416#0 4730416#4 548370035#0 548370035#1 548370031#2 334810149#0 334810149#1 548370029 548370028#1 548370030#0 548370036 15801838#0 33694486#1 33694486#2 33694486#3 33694486#4 1051820108#1 33694459#0 33694459#1"/>
    </vehicle>
    <vehicle id="veh50" type="veh_passenger" depart="856.08" departLane="best">
        <route edges="10418288#4 33693780#5 33693780#6 33693780#7 33693780#8 543888804#0 543888805 332455398#0 332455398#1 332455374#0 332455374#2 548370034 548370033#0 548370033#1 548370032 4398951#0 4398951#1 92142139 92142136 1411243432#1 1411243431 27331400#0 592017400 4799414#0 69184467#2 580414174 8143580 53275982#0 4734976#0 4734976#1 601313541 571372263#0"/>
    </vehicle>
    <vehicle id="veh51" type="veh_passenger" depart="873.21" departLane="best">
        <route edges="332455382#0 332455382#1 14389224#2 14389229#0 334810149#1 548370029 548370028#1 548370030#0 968872143 548370037#0 4572161#0 4572161#1 543888836 526016653#4 526016651"/>
    </vehicle>
    <vehicle id="veh52" type="veh_passenger" depart="890.33" departLane="best">
        <route edges="-577305652#1 -1111971585#3 -1111971585#2 1111971585#2 1111971585#3 577305652#0 821304189#0 217451769 20020535#1 20020535#2 20020535#3 20020535#5 609970356 1322481692 27014785#0 1165309879#1 1165309879#2 526016618#1 526016615#0 33693799#1 33693780#1 33693780#2 33693780#3 33693780#4 33693780#5 33693780#6 33693780#7 33693780#8 543888804#0 543888805 332455398#0 332455398#1 332455374#0 332455374#2 548370034 548370033#0 548370033#1 548370032 4398951#0 4398951#1 92142139 92142136 1411243432#1"/>
    </vehicle>
    <vehicle id="veh53" type="veh_passenger" depart="907.45" departLane="best">
        <route edges="942456034#2 -550432836 -550432837#0 -33695402#1 525958045#1 525958045#2 525958045#3 33693225 550432834#0 4572161#0 4572161#1 543888836 4730408#2 4730408#3 1053555711#0 4730409#1"/>
    </vehicle>
    <vehicle id="veh54" type="veh_passenger" depart="924.57" departLane="best">
        <route edges="-4399044 4399044 27014767#0 20020535#1 20020535#2 20020535#3 20020535#5 609970356 1322481692 27014785#0 1165309879#1 1165309879#2 526016618#1 526016615#0 33693799#1 33693780#1 33693780#2 33693780#3 33693780#4 33693780#5 33693780#6 33693780#7 33693780#8 543888804#0 543888805 332455398#0 332455398#1 332455374#0 332455374#2 548370034 548370033#0 548370033#1 548370032 4398951#0 4398951#1 92142139 92142136 -1344040643 -92142139"/>
    </vehicle>
    <vehicle id="veh55" type="veh_passenger" depart="941.69" departLane="best" departSpeed="max">
        <route edges="-699663268#9 -699663268#6 -699663268#5 -699663268#3 -699663268#1 -4533226#1 -526016665#1 -548529065 -871499634"/>
    </vehicle>
    <vehicle id="veh56" type="veh_passenger" depart="958.81" departLane="best" departSpeed="max">
        <route edges="-699663268#9 -699663268#6 28951462#1 28951462#2 28951462#3 1111971585#1 1111971585#2 1111971585#3 577305652#0 821304189#0 217451769 20020535#1 20020535#2 20020535#3 20020535#5 609970356 1322481692 27014785#0 1165309879#1 1165309879#2 526016618#1 526016615#0 33693799#1 33693780#1 33693780#2 33693780#3 33693780#4 33693780#5 33693780#6 33693780#7 33693780#8 543888804#0 543888805 332455398#0 332455398#1 332455374#0 332455374#2 548370034 548370033#0 548370033#1 548370032 4398951#0 4398951#1 92142139 92142136 1411243432#1 1411243431 27331400#0 592017400"/>
    </vehicle>
    <vehicle id="veh57" type="veh_passenger" depart="975.94" departLane="best">
        <route edges="548370035#1 548370031#2 334810149#0 334810149#1 548370029 548370028#1 548370030#0 548370036 15801838#0 33694486#1 33694486#2 33694486#3 33694486#4 1051820108#1 33694459#0 33694459#1 33694459#3 248669676#0 248669680 -248669680"/>
    </vehicle>
    <vehicle id="veh58" type="veh_passenger" depart="993.06" departLane="best" departSpeed="max">
        <route edges="-60505837#1 25983496#2 25983496#3 -25983494#1 -25983494#0 4399044 27014767#0 20020535#1 20020535#2 20020535#3 20020535#5 609970356 1322481692 27014785#0 1165309879#1 1165309879#2 526016618#1 526016615#0 35162766#0 942456034#0 942456034#1 942456034#2 -550432836 -942456035#0 -942456034#2 -942456034#1 -942456034#0 -35162766#0"/>
    </vehicle>
    <vehicle id="veh59" type="veh_passenger" depart="1010.18" departLane="best" departSpeed="max">
        <route edges="25614748#0 25614748#1 146778074#0 146778074#1 146778074#2 146778074#5 146778067#0 146778067#1 -548370032 -548370033#1 -548370033#0 4730416#0 4730416#4 548370035#0 548370035#1 548370031#2 334810149#0 334810149#1 548370029 15676559#1 15676559#2 15676559#3 15676559#4 33693780#3 33693780#4 33693780#5 33693780#6 33693780#7 33693780#8 543888804#0 543888805"/>
    </vehicle>
    <vehicle id="veh60" type="veh_passenger" depart="1027.30" departLane="best">
        <route edges="536908734#2 536908725#0 536908725#1 670738521#0 371344296#0 371344296#1 371344296#3 602621681 602621673 498169246 889067535 69184467#2 580414174 8143580 53275982#0 4734976#0 4734976#1 601313541 571372263#0 571372263#1 571372263#2 -641490961#0 -571372263#1 -571372263#0"/>
    </vehicle>
    <vehicle id="veh61" type="veh_passenger" depart="1044.42" departLane="best" departSpeed="max">
        <route edges="-331553004#1 -942456035#0 -942456034#2 -942456034#1 -942456034#0 -35162766#0 33693799#1 33693780#1 33693780#2 33693780#3 33693780#4 33693780#5 33693780#6 33693780#7 33693780#8 543888804#0 332455400 332455401#0 15676292#1 15676292#2 332455382#0 332455382#1 332455382#2 140726947#0 140726947#1 140726947#2 609970340#0 609970340#1 50003696#4 35393372#0 25983494#0 25983494#1"/>
    </vehicle>
    <vehicle id="veh62" type="veh_passenger" depart="1061.54" departLane="best">
        <route edges="15676292#1 15676292#2 -332455381 -141885660#3 -141885660#2 4803560#4 968872143 548370037#0 4572161#0 4572161#1 543888836 526016653#4 526016651 526016643#1 -536841066 -28630236#1 -28630236#0 871499634 548529065 526016665#0 4533226#1 699663268#0 699663268#3 699663268#5 28951462#1 28951462#2 28951462#3"/>
    </vehicle>
    <vehicle id="veh63" type="veh_passenger" depart="1078.67" departLane="best" departSpeed="max">
        <route edges="4803560#0 4803560#1 4803560#4 548370036 15801838#0 33693780#1 33693780#2 33693780#3 33693780#4 33693780#5 33693780#6 33693780#7 33693780#8 543888804#0 543888805 332455398#0 332455398#1 332455374#0 332455374#2 548370034 548370033#0 548370033#1 548370032 4398951#0 4398951#1 92142139 92142136 1411243432#1 1411243431 27331400#0 592017400 4799414#0 69184467#2 580414174 8143580 53275982#0 4734976#0 4734976#1"/>
    </vehicle>
    <vehicle id="veh64" type="veh_passenger" depart="1095.79" departLane="best">
        <route edges="92142139 92142136 -1344040643 -92142139 -4398951#1 -4398951#0 -548370032 -548370033#1 -548370033#0 4730416#0 4730416#4 548370035#0 548370035#1 548370031#2 334810149#0 334810149#1 548370029 548370028#1 548370030#0 548370036 15801838#0 33694486#1 33694486#2 33694486#3 33694486#4 -26127384#3"/>
    </vehicle>
    <vehicle id="veh65" type="veh_passenger" depart="1112.91" departLane="best" departSpeed="max">
        <route edges="147759323#0 147759323#1 147759323#2 147759323#3 143722134#1 143722134#2 143722134#3 143722134#4 143722134#6 35162947#1 -1344040643 -92142139 -4398951#1 -4398951#0 -548370032 -548370033#1 -548370033#0 4730416#0 4730416#4 548370035#0 548370035#1 548370031#2 334810149#0 334810149#1 15676292#1 15676292#2 332455382#0 332455382#1 14389224#2 14389229#0"/>
    </vehicle>
    <vehicle id="veh66" type="veh_passenger" depart="1130.03" departLane="best">
        <route edges="548370035#1 548370031#2 334810149#0 334810149#1 548370029 548370028#1 548370030#0 548370036 15801838#0 33694486#1 33694486#2 33694486#3 33694486#4 1051820108#1 33694459#0 33694459#1 33694459#3 -4803559#2 -4803559#1 1056324193#1"/>
    </vehicle>