<?xml version="1.0" encoding="UTF-8"?>

<!-- generated on 2025-10-04 17:13:09.452965 by osmWebWizard.py v1_24_0+0000-b72eb3fabc8
<configuration>
    <net-file value="C:\Users\visco\Sumo\2025-10-04-17-12-56\osm.net.xml.gz"/>
    <output-trip-file value="C:\Users\visco\Sumo\2025-10-04-17-12-56\osm.passenger.trips.xml"/>
    <route-file value="C:\Users\visco\Sumo\2025-10-04-17-12-56\osm.passenger.rou.xml"/>
    <prefix value="veh"/>
    <trip-attributes value="departLane=&quot;best&quot;"/>
    <fringe-start-attributes value="departSpeed=&quot;max&quot;"/>
    <vehicle-class value="passenger"/>
    <lanes value="True"/>
    <fringe-factor value="5"/>
    <allow-fringe.min-length value="1000.0"/>
    <edge-permission value="passenger"/>
    <via-edge-types value="highway.motorway,highway.motorway_link,highway.trunk_link,highway.primary_link,highway.secondary_link,highway.tertiary_link"/>
    <min-distance value="300.0"/>
    <min-distance.fringe value="10.0"/>
    <remove-loops value="True"/>
    <insertion-density value="12.0"/>
</configuration>
-->

<routes xmlns:xsi="http://www.w3.org/2001/XMLSchema-instance" xsi:noNamespaceSchemaLocation="http://sumo.dlr.de/xsd/routes_file.xsd">
    <vType id="veh_passenger" vClass="passenger"/>
    <trip id="veh0" depart="0.00" from="-550432836" to="-548370033#0" departLane="best" type="veh_passenger"/>
    <trip id="veh1" depart="5.86" from="548917388#0" to="-14947682" departLane="best" type="veh_passenger"/>
    <trip id="veh2" depart="11.72" from="134807808#0" to="-1192355872#0" departLane="best" type="veh_passenger" departSpeed="max"/>
    <trip id="veh3" depart="17.58" from="-1113744422#1" to="-4803560#0" departLane="best" type="veh_passenger"/>
    <trip id="veh4" depart="23.44" from="334810149#1" to="27361348#0" departLane="best" type="veh_passenger"/>
    <trip id="veh5" depart="29.30" from="5074558#1" to="-1055373034#4" departLane="best" type="veh_passenger"/>
    <trip id="veh6" depart="35.16" from="501215198#4" to="4495228#2" departLane="best" type="veh_passenger"/>
    <trip id="veh7" depart="41.02" from="10418400#1" to="-332455399#1" departLane="best" type="veh_passenger"/>
    <trip id="veh8" depart="46.88" from="-147759323#3" to="-15677258#0" departLane="best" type="veh_passenger"/>
    <trip id="veh9" depart="52.73" from="543698047" to="334810150#1" departLane="best" type="veh_passenger"/>
    <trip id="veh10" depart="58.59" from="506482101#1" to="4596401#1" departLane="best" type="veh_passenger"/>
    <trip id="veh11" depart="64.45" from="15801838#0" to="860373108#0" departLane="best" type="veh_passenger"/>
    <trip id="veh12" depart="70.31" from="11667106#0" to="28128202#2" departLane="best" type="veh_passenger" departSpeed="max"/>
    <trip id="veh13" depart="76.17" from="526016640#2" to="33694459#1" departLane="best" type="veh_passenger"/>
    <trip id="veh14" depart="82.03" from="546792881#0" to="32120551" departLane="best" type="veh_passenger"/>
    <trip id="veh15" depart="87.89" from="398028000#1" to="-1344040643" departLane="best" type="veh_passenger"/>
    <trip id="veh16" depart="93.75" from="-4576428#1" to="10418321#1" departLane="best" type="veh_passenger" departSpeed="max"/>
    <trip id="veh17" depart="99.61" from="-146545821#1" to="-550432841#1" departLane="best" type="veh_passenger"/>
    <trip id="veh18" depart="105.47" from="-15677258#1" to="-942456034#1" departLane="best" type="veh_passenger"/>
    <trip id="veh19" depart="111.33" from="332455374#2" to="128840098#1" departLane="best" type="veh_passenger"/>
    <trip id="veh20" depart="117.19" from="1163565846#1" to="-536841066" departLane="best" type="veh_passenger"/>
    <trip id="veh21" depart="123.05" from="-548370033#1" to="64659700" departLane="best" type="veh_passenger"/>
    <trip id="veh22" depart="128.91" from="-31020419#2" to="4592657#1" departLane="best" type="veh_passenger" departSpeed="max"/>
    <trip id="veh23" depart="134.77" from="-28630236#1" to="1367076582#1" departLane="best" type="veh_passenger"/>
    <trip id="veh24" depart="140.63" from="20020535#5" to="4440330#0" departLane="best" type="veh_passenger"/>
    <trip id="veh25" depart="146.49" from="-4596504" to="-1227184777#0" departLane="best" type="veh_passenger" departSpeed="max"/>
    <trip id="veh26" depart="152.35" from="-82086620#1" to="-86145639#0" departLane="best" type="veh_passenger"/>
    <trip id="veh27" depart="158.20" from="-4440330#0" to="722646198" departLane="best" type="veh_passenger"/>
    <trip id="veh28" depart="164.06" from="548370030#0" to="112168940#1" departLane="best" type="veh_passenger"/>
    <trip id="veh29" depart="169.92" from="571372263#0" to="15677510#6" departLane="best" type="veh_passenger" departSpeed="max"/>
    <trip id="veh30" depart="175.78" from="-548370032" to="-5772335#2" departLane="best" type="veh_passenger"/>
    <trip id="veh31" depart="181.64" from="218931349#1" to="-860373105#1" departLane="best" type="veh_passenger"/>
    <trip id="veh32" depart="187.50" from="24232445#3" to="576862392#4" departLane="best" type="veh_passenger"/>
    <trip id="veh33" depart="193.36" from="11917063" to="-548134627#1" departLane="best" type="veh_passenger" departSpeed="max"/>
    <trip id="veh34" depart="199.22" from="975977035#1" to="24232446#3" departLane="best" type="veh_passenger"/>
    <trip id="veh35" depart="205.08" from="-147692716#1" to="-134807808#0" departLane="best" type="veh_passenger"/>
    <trip id="veh36" depart="210.94" from="-218931349#0" to="341018763#2" departLane="best" type="veh_passenger"/>
    <trip id="veh37" depart="216.80" from="4730408#2" to="146977950#1" departLane="best" type="veh_passenger"/>
    <trip id="veh38" depart="222.66" from="-13949345#2" to="138424023#2" departLane="best" type="veh_passenger"/>
    <trip id="veh39" depart="228.52" from="860373105#3" to="548917388#0" departLane="best" type="veh_passenger"/>
    <trip id="veh40" depart="234.38" from="-1055373034#5" to="4495265#8" departLane="best" type="veh_passenger" departSpeed="max"/>
    <trip id="veh41" depart="240.24" from="-218931349#2" to="147759323#1" departLane="best" type="veh_passenger"/>
    <trip id="veh42" depart="246.10" from="13952186#0" to="7972686#0" departLane="best" type="veh_passenger" departSpeed="max"/>
    <trip id="veh43" depart="251.96" from="548370030#0" to="-860373105#1" departLane="best" type="veh_passenger"/>
    <trip id="veh44" depart="257.81" from="147692714" to="-4393002#7" departLane="best" type="veh_passenger"/>
    <trip id="veh45" depart="263.67" from="565560611#2" to="559462241#1" departLane="best" type="veh_passenger"/>
    <trip id="veh46" depart="269.53" from="-5944809" to="374407129#3" departLane="best" type="veh_passenger" departSpeed="max"/>
    <trip id="veh47" depart="275.39" from="28128202#1" to="-332455382#0" departLane="best" type="veh_passenger"/>
    <trip id="veh48" depart="281.25" from="4495229#4" to="27361257" departLane="best" type="veh_passenger"/>
    <trip id="veh49" depart="287.11" from="4576428#1" to="26127384#1" departLane="best" type="veh_passenger"/>
    <trip id="veh50" depart="292.97" from="-1056345547" to="6068757" departLane="best" type="veh_passenger"/>
    <trip id="veh51" depart="298.83" from="548370032" to="548134623#1" departLane="best" type="veh_passenger"/>
    <trip id="veh52" depart="304.69" from="-623571872" to="-145204590#0" departLane="best" type="veh_passenger" departSpeed="max"/>
    <trip id="veh53" depart="310.55" from="-146978661#2" to="23920557#1" departLane="best" type="veh_passenger" departSpeed="max"/>
    <trip id="veh54" depart="316.41" from="-1411243431" to="5074558#1" departLane="best" type="veh_passenger" departSpeed="max"/>
    <trip id="veh55" depart="322.27" from="4495236#0" to="-248669676#0" departLane="best" type="veh_passenger"/>
    <trip id="veh56" depart="328.13" from="145204590#1" to="27405403#0" departLane="best" type="veh_passenger"/>
    <trip id="veh57" depart="333.99" from="-548370032" to="559462245" departLane="best" type="veh_passenger"/>
    <trip id="veh58" depart="339.85" from="134807808#0" to="-543129619#0" departLane="best" type="veh_passenger" departSpeed="max"/>
    <trip id="veh59" depart="345.71" from="15801863#1" to="4596401#1" departLane="best" type="veh_passenger"/>
    <trip id="veh60" depart="351.57" from="-4398888#1" to="10750844#1" departLane="best" type="veh_passenger" departSpeed="max"/>
    <trip id="veh61" depart="357.42" from="968872143" to="38892916#7" departLane="best" type="veh_passenger"/>
    <trip id="veh62" depart="363.28" from="-23920557#9" to="-548529065" departLane="best" type="veh_passenger"/>
    <trip id="veh63" depart="369.14" from="10418288#2" to="332455377#8" departLane="best" type="veh_passenger"/>
    <trip id="veh64" depart="375.00" from="-4596504" to="-548134627#1" departLane="best" type="veh_passenger" departSpeed="max"/>
    <trip id="veh65" depart="380.86" from="-4596504" to="5772335#3" departLane="best" type="veh_passenger" departSpeed="max"/>
    <trip id="veh66" depart="386.72" from="544415712#2" to="-146778074#0" departLane="best" type="veh_passenger"/>
    <trip id="veh67" depart="392.58" from="-5183081#1" to="4376124" departLane="best" type="veh_passenger"/>
    <trip id="veh68" depart="398.44" from="-4480948#0" to="-24978203#0" departLane="best" type="veh_passenger"/>
    <trip id="veh69" depart="404.30" from="601313558#0" to="31020072#1" departLane="best" type="veh_passenger"/>
    <trip id="veh70" depart="410.16" from="14389891#0" to="526016653#4" departLane="best" type="veh_passenger"/>
    <trip id="veh71" depart="416.02" from="506482101#1" to="-4495236#0" departLane="best" type="veh_passenger"/>
    <trip id="veh72" depart="421.88" from="-14947691#3" to="147636174#1" departLane="best" type="veh_passenger"/>
    <trip id="veh73" depart="427.74" from="134807808#0" to="172222118#3" departLane="best" type="veh_passenger" departSpeed="max"/>
    <trip id="veh74" depart="433.60" from="4376121#0" to="43815227#1" departLane="best" type="veh_passenger" departSpeed="max"/>
    <trip id="veh75" depart="439.46" from="92142136" to="-15677510#1" departLane="best" type="veh_passenger"/>
    <trip id="veh76" depart="445.32" from="11943595#1" to="11916106#0" departLane="best" type="veh_passenger"/>
    <trip id="veh77" depart="451.18" from="-398028000#1" to="15675937#0" departLane="best" type="veh_passenger"/>
    <trip id="veh78" depart="457.04" from="134807808#0" to="-942456034#2" departLane="best" type="veh_passenger" departSpeed="max"/>
    <trip id="veh79" depart="462.89" from="-536841066" to="60447878" departLane="best" type="veh_passenger"/>
    <trip id="veh80" depart="468.75" from="138424035#1" to="548917390#1" departLane="best" type="veh_passenger"/>
    <trip id="veh81" depart="474.61" from="20020535#0" to="-134807808#2" departLane="best" type="veh_passenger" departSpeed="max"/>
    <trip id="veh82" depart="480.47" from="9883506#0" to="548134627#0" departLane="best" type="veh_passenger"/>
    <trip id="veh83" depart="486.33" from="860373105#0" to="6068757" departLane="best" type="veh_passenger"/>
    <trip id="veh84" depart="492.19" from="543888804#0" to="-374546587#1" departLane="best" type="veh_passenger"/>
    <trip id="veh85" depart="498.05" from="1192355872#0" to="-145204590#0" departLane="best" type="veh_passenger"/>
    <trip id="veh86" depart="503.91" from="11667106#0" to="92142139" departLane="best" type="veh_passenger" departSpeed="max"/>
    <trip id="veh87" depart="509.77" from="-548370033#0" to="526016652#1" departLane="best" type="veh_passenger"/>
    <trip id="veh88" depart="515.63" from="13952186#0" to="146977950#3" departLane="best" type="veh_passenger" departSpeed="max"/>
    <trip id="veh89" depart="521.49" from="7972686#0" to="968872143" departLane="best" type="veh_passenger"/>
    <trip id="veh90" depart="527.35" from="20020535#3" to="4495265#10" departLane="best" type="veh_passenger"/>
    <trip id="veh91" depart="533.21" from="-27361348#1" to="1042406838#0" departLane="best" type="veh_passenger" departSpeed="max"/>
    <trip id="veh92" depart="539.07" from="860373105#0" to="32120551" departLane="best" type="veh_passenger"/>
    <trip id="veh93" depart="544.93" from="190714064#0" to="4730416#0" departLane="best" type="veh_passenger"/>
    <trip id="veh94" depart="550.79" from="147759323#0" to="548370035#0" departLane="best" type="veh_passenger"/>
    <trip id="veh95" depart="556.65" from="248669676#0" to="4393002#0" departLane="best" type="veh_passenger"/>
    <trip id="veh96" depart="562.50" from="-4803559#1" to="-24035649#2" departLane="best" type="veh_passenger"/>
    <trip id="veh97" depart="568.36" from="548529065" to="-5772335#1" departLane="best" type="veh_passenger"/>
    <trip id="veh98" depart="574.22" from="129783192" to="332455374#2" departLane="best" type="veh_passenger"/>
    <trip id="veh99" depart="580.08" from="15675937#0" to="623571872" departLane="best" type="veh_passenger"/>
    <trip id="veh100" depart="585.94" from="-4398888#1" to="4495265#1" departLane="best" type="veh_passenger" departSpeed="max"/>
    <trip id="veh101" depart="591.80" from="-5183081#1" to="141885659#1" departLane="best" type="veh_passenger"/>
    <trip id="veh102" depart="597.66" from="33695402#1" to="1055373034#3" departLane="best" type="veh_passenger"/>
    <trip id="veh103" depart="603.52" from="-860373105#0" to="501215198#0" departLane="best" type="veh_passenger"/>
    <trip id="veh104" depart="609.38" from="-141885660#3" to="15677510#5" departLane="best" type="veh_passenger"/>
    <trip id="veh105" depart="615.24" from="975977035#3" to="970871269#0" departLane="best" type="veh_passenger"/>
    <trip id="veh106" depart="621.10" from="-14389891#0" to="-543698042" departLane="best" type="veh_passenger"/>
    <trip id="veh107" depart="626.96" from="-548370033#0" to="623571872" departLane="best" type="veh_passenger"/>
    <trip id="veh108" depart="632.82" from="548370033#0" to="559462248#0" departLane="best" type="veh_passenger"/>
    <trip id="veh109" depart="638.68" from="1163565846#1" to="-33695402#1" departLane="best" type="veh_passenger"/>
    <trip id="veh110" depart="644.54" from="526016660#0" to="4495229#2" departLane="best" type="veh_passenger"/>
    <trip id="veh111" depart="650.40" from="28128202#3" to="942285773#0" departLane="best" type="veh_passenger"/>
    <trip id="veh112" depart="656.26" from="33693780#8" to="651999512#0" departLane="best" type="veh_passenger"/>
    <trip id="veh113" depart="662.12" from="-190714064#0" to="28128202#3" departLane="best" type="veh_passenger"/>
    <trip id="veh114" depart="667.97" from="-549356141#0" to="334810150#3" departLane="best" type="veh_passenger"/>
    <trip id="veh115" depart="673.83" from="43523176#0" to="-5183081#1" departLane="best" type="veh_passenger" departSpeed="max"/>
    <trip id="veh116" depart="679.69" from="332455374#0" to="-860373105#3" departLane="best" type="veh_passenger"/>
    <trip id="veh117" depart="685.55" from="146977950#1" to="5772335#3" departLane="best" type="veh_passenger"/>
    <trip id="veh118" depart="691.41" from="543698043#1" to="-14947691#2" departLane="best" type="veh_passenger"/>
    <trip id="veh119" depart="697.27" from="134807808#0" to="-942348910#0" departLane="best" type="veh_passenger" departSpeed="max"/>
    <trip id="veh120" depart="703.13" from="-10418400#1" to="521436340#1" departLane="best" type="veh_passenger"/>
    <trip id="veh121" depart="708.99" from="332455377#10" to="-860373105#0" departLane="best" type="veh_passenger"/>
    <trip id="veh122" depart="714.85" from="4398897" to="28128202#2" departLane="best" type="veh_passenger"/>
    <trip id="veh123" depart="720.71" from="136125313#4" to="-10678336#2" departLane="best" type="veh_passenger"/>
    <trip id="veh124" depart="726.57" from="-14389891#3" to="559462254#0" departLane="best" type="veh_passenger" departSpeed="max"/>
    <trip id="veh125" depart="732.43" from="559462248#0" to="27361348#0" departLane="best" type="veh_passenger"/>
    <trip id="veh126" depart="738.29" from="526016660#1" to="332455374#0" departLane="best" type="veh_passenger"/>
    <trip id="veh127" depart="744.15" from="-26647215" to="-24444507#1" departLane="best" type="veh_passenger"/>
    <trip id="veh128" depart="750.01" from="4730416#0" to="548917388#0" departLane="best" type="veh_passenger"/>
    <trip id="veh129" depart="755.87" from="550432837#0" to="-543129612#0" departLane="best" type="veh_passenger"/>
    <trip id="veh130" depart="761.73" from="-536841066" to="-190714064#0" departLane="best" type="veh_passenger"/>
    <trip id="veh131" depart="767.58" from="4576433#0" to="559462254#1" departLane="best" type="veh_passenger" departSpeed="max"/>
    <trip id="veh132" depart="773.44" from="123171014#2" to="33694486#2" departLane="best" type="veh_passenger"/>
    <trip id="veh133" depart="779.30" from="-27361348#1" to="609220454#1" departLane="best" type="veh_passenger" departSpeed="max"/>
    <trip id="veh134" depart="785.16" from="548134622#0" to="86145639#0" departLane="best" type="veh_passenger"/>
    <trip id="veh135" depart="791.02" from="5074558#4" to="559462250#1" departLane="best" type="veh_passenger"/>
    <trip id="veh136" depart="796.88" from="4803560#1" to="549356141#1" departLane="best" type="veh_passenger"/>
    <trip id="veh137" depart="802.74" from="5074558#4" to="-86145637#1" departLane="best" type="veh_passenger"/>
    <trip id="veh138" depart="808.60" from="4627817#0" to="-218931349#3" departLane="best" type="veh_passenger" departSpeed="max"/>
    <trip id="veh139" depart="814.46" from="548370028#1" to="548529066#0" departLane="best" type="veh_passenger"/>
    <trip id="veh140" depart="820.32" from="-4495237#0" to="543888806#1" departLane="best" type="veh_passenger"/>
    <trip id="veh141" depart="826.18" from="141885660#2" to="1056324193#2" departLane="best" type="veh_passenger"/>
    <trip id="veh142" depart="832.04" from="4730416#0" to="-549356141#1" departLane="best" type="veh_passenger"/>
    <trip id="veh143" depart="837.90" from="-10750844#1" to="-4495236#1" departLane="best" type="veh_passenger"/>
    <trip id="veh144" depart="843.76" from="85428152#1" to="-942456035#0" departLane="best" type="veh_passenger"/>
    <trip id="veh145" depart="849.62" from="332455382#0" to="143722134#1" departLane="best" type="veh_passenger"/>
    <trip id="veh146" depart="855.48" from="60447877" to="-23920557#7" departLane="best" type="veh_passenger"/>
    <trip id="veh147" depart="861.34" from="860373105#1" to="-4393002#7" departLane="best" type="veh_passenger"/>
    <trip id="veh148" depart="867.19" from="4376121#0" to="1113744422#1" departLane="best" type="veh_passenger" departSpeed="max"/>
    <trip id="veh149" depart="873.05" from="27361257" to="24232448#0" departLane="best" type="veh_passenger"/>
    <trip id="veh150" depart="878.91" from="-543888833#1" to="4495237#0" departLane="best" type="veh_passenger"/>
    <trip id="veh151" depart="884.77" from="15801861#4" to="4495265#5" departLane="best" type="veh_passenger"/>
    <trip id="veh152" depart="890.63" from="4398897" to="4376124" departLane="best" type="veh_passenger"/>
    <trip id="veh153" depart="896.49" from="1147015971#0" to="-146778074#0" departLane="best" type="veh_passenger"/>
    <trip id="veh154" depart="902.35" from="33693780#8" to="1168931401#0" departLane="best" type="veh_passenger"/>
    <trip id="veh155" depart="908.21" from="-792703542#1" to="548370033#0" departLane="best" type="veh_passenger"/>
    <trip id="veh156" depart="914.07" from="43523176#0" to="1055373034#4" departLane="best" type="veh_passenger" departSpeed="max"/>
    <trip id="veh157" depart="919.93" from="11943595#1" to="1042405421#2" departLane="best" type="veh_passenger"/>
    <trip id="veh158" depart="925.79" from="-24035649#4" to="146977152#3" departLane="best" type="veh_passenger" departSpeed="max"/>
    <trip id="veh159" depart="931.65" from="609970356" to="4393002#4" departLane="best" type="veh_passenger"/>
    <trip id="veh160" depart="937.51" from="559462246#1" to="33693780#7" departLane="best" type="veh_passenger"/>
    <trip id="veh161" depart="943.37" from="-596103315#1" to="27390441" departLane="best" type="veh_passenger"/>
    <trip id="veh162" depart="949.23" from="-101482633#1" to="10418288#1" departLane="best" type="veh_passenger"/>
    <trip id="veh163" depart="955.09" from="1364281503" to="32120551" departLane="best" type="veh_passenger" departSpeed="max"/>
    <trip id="veh164" depart="960.95" from="138424023#2" to="-543698042" departLane="best" type="veh_passenger"/>
    <trip id="veh165" depart="966.81" from="145204589" to="576862392#6" departLane="best" type="veh_passenger"/>
    <trip id="veh166" depart="972.66" from="4730416#0" to="-43068084#1" departLane="best" type="veh_passenger"/>
    <trip id="veh167" depart="978.52" from="331553004#1" to="1169386963" departLane="best" type="veh_passenger"/>
    <trip id="veh168" depart="984.38" from="521436340#1" to="4803560#4" departLane="best" type="veh_passenger"/>
    <trip id="veh169" depart="990.24" from="33819459" to="-548529065" departLane="best" type="veh_passenger"/>
    <trip id="veh170" depart="996.10" from="-4393002#7" to="-11916106#0" departLane="best" type="veh_passenger"/>
    <trip id="veh171" depart="1001.96" from="543888804#0" to="-146778074#4" departLane="best" type="veh_passenger"/>
    <trip id="veh172" depart="1007.82" from="125860019#7" to="341018763#4" departLane="best" type="veh_passenger"/>
    <trip id="veh173" depart="1013.68" from="147633774#0" to="-571372263#0" departLane="best" type="veh_passenger" departSpeed="max"/>
    <trip id="veh174" depart="1019.54" from="33693780#1" to="-1055373034#3" departLane="best" type="veh_passenger"/>
    <trip id="veh175" depart="1025.40" from="-190714064#0" to="146978662#1" departLane="best" type="veh_passenger"/>
    <trip id="veh176" depart="1031.26" from="-332455382#2" to="8144498#1" departLane="best" type="veh_passenger" departSpeed="max"/>
    <trip id="veh177" depart="1037.12" from="14947691#2" to="-134807808#2" departLane="best" type="veh_passenger"/>
    <trip id="veh178" depart="1042.98" from="-536841066" to="548370033#0" departLane="best" type="veh_passenger"/>
    <trip id="veh179" depart="1048.84" from="13952186#1" to="532158277#1" departLane="best" type="veh_passenger"/>
    <trip id="veh180" depart="1054.70" from="33694486#1" to="942285773#0" departLane="best" type="veh_passenger"/>
    <trip id="veh181" depart="1060.56" from="248669678#0" to="77079364#1" departLane="best" type="veh_passenger"/>
    <trip id="veh182" depart="1066.42" from="548529066#0" to="33693780#5" departLane="best" type="veh_passenger"/>
    <trip id="veh183" depart="1072.27" from="43523176#0" to="24154402#2" departLane="best" type="veh_passenger" departSpeed="max"/>
    <trip id="veh184" depart="1078.13" from="526016651" to="27390441" departLane="best" type="veh_passenger"/>
    <trip id="veh185" depart="1083.99" from="550432833#0" to="4730409#2" departLane="best" type="veh_passenger"/>
    <trip id="veh186" depart="1089.85" from="145204590#1" to="-82086620#0" departLane="best" type="veh_passenger"/>
    <trip id="veh187" depart="1095.71" from="-532158277#1" to="374407129#2" departLane="best" type="veh_passenger"/>
    <trip id="veh188" depart="1101.57" from="4495236#0" to="24701197" departLane="best" type="veh_passenger"/>
    <trip id="veh189" depart="1107.43" from="31017529#0" to="-92142133" departLane="best" type="veh_passenger" departSpeed="max"/>
    <trip id="veh190" depart="1113.29" from="-145204590#1" to="10414497#2" departLane="best" type="veh_passenger"/>
    <trip id="veh191" depart="1119.15" from="-548917390#1" to="1163565846#1" departLane="best" type="veh_passenger" departSpeed="max"/>
    <trip id="veh192" depart="1125.01" from="172028056" to="-27405403#0" departLane="best" type="veh_passenger"/>
    <trip id="veh193" depart="1130.87" from="-4596504" to="4481729#2" departLane="best" type="veh_passenger" departSpeed="max"/>
    <trip id="veh194" depart="1136.73" from="123288237#3" to="27361348#0" departLane="best" type="veh_passenger"/>
    <trip id="veh195" depart="1142.59" from="12618874#0" to="-532158277#1" departLane="best" type="veh_passenger"/>
    <trip id="veh196" depart="1148.45" from="1322481692" to="5772335#2" departLane="best" type="veh_passenger"/>
    <trip id="veh197" depart="1154.31" from="11667106#0" to="-1055373034#3" departLane="best" type="veh_passenger" departSpeed="max"/>
    <trip id="veh198" depart="1160.17" from="1056215011#1" to="501215198#3" departLane="best" type="veh_passenger"/>
    <trip id="veh199" depart="1166.03" from="129783192" to="4730416#0" departLane="best" type="veh_passenger"/>
    <trip id="veh200" depart="1171.89" from="10414497#2" to="4394265#1" departLane="best" type="veh_passenger"/>
    <trip id="veh201" depart="1177.74" from="122970112#1" to="-371345227#0" departLane="best" type="veh_passenger"/>
    <trip id="veh202" depart="1183.60" from="143722134#3" to="-24444507#1" departLane="best" type="veh_passenger"/>
    <trip id="veh203" depart="1189.46" from="295864510#2" to="-11917063" departLane="best" type="veh_passenger"/>
    <trip id="veh204" depart="1195.32" from="-24232449#0" to="15801814#2" departLane="best" type="veh_passenger"/>
    <trip id="veh205" depart="1201.18" from="-125860019#7" to="1367076582#0" departLane="best" type="veh_passenger"/>
    <trip id="veh206" depart="1207.04" from="4495229#1" to="1367076582#1" departLane="best" type="veh_passenger"/>
    <trip id="veh207" depart="1212.90" from="-543698043#1" to="-147759323#1" departLane="best" type="veh_passenger" departSpeed="max"/>
    <trip id="veh208" depart="1218.76" from="9883506#1" to="123288237#10" departLane="best" type="veh_passenger"/>
    <trip id="veh209" depart="1224.62" from="334810149#1" to="526016640#1" departLane="best" type="veh_passenger"/>
    <trip id="veh210" depart="1230.48" from="75528930#2" to="-4803560#0" departLane="best" type="veh_passenger"/>
    <trip id="veh211" depart="1236.34" from="-10594647#1" to="-332455381" departLane="best" type="veh_passenger"/>
    <trip id="veh212" depart="1242.20" from="-24035649#2" to="4376124" departLane="best" type="veh_passenger"/>
    <trip id="veh213" depart="1248.06" from="-31017604#1" to="33693780#1" departLane="best" type="veh_passenger"/>
    <trip id="veh214" depart="1253.92" from="4479836#2" to="-23920557#5" departLane="best" type="veh_passenger"/>
    <trip id="veh215" depart="1259.78" from="521436340#1" to="82086621#2" departLane="best" type="veh_passenger"/>
    <trip id="veh216" depart="1265.64" from="-651999512#0" to="4393002#4" departLane="best" type="veh_passenger"/>
    <trip id="veh217" depart="1271.50" from="8030441#1" to="141885660#2" departLane="best" type="veh_passenger"/>
    <trip id="veh218" depart="1277.35" from="43523176#0" to="-147633771#1" departLane="best" type="veh_passenger" departSpeed="max"/>
    <trip id="veh219" depart="1283.21" from="-15677510#0" to="521436342#1" departLane="best" type="veh_passenger"/>
    <trip id="veh220" depart="1289.07" from="-23920557#9" to="92142133" departLane="best" type="veh_passenger"/>
    <trip id="veh221" depart="1294.93" from="4592656#0" to="123171014#1" departLane="best" type="veh_passenger"/>
    <trip id="veh222" depart="1300.79" from="543888804#0" to="544415710#1" departLane="best" type="veh_passenger"/>
    <trip id="veh223" depart="1306.65" from="-548917390#1" to="543129612#0" departLane="best" type="veh_passenger" departSpeed="max"/>
    <trip id="veh224" depart="1312.51" from="15801861#1" to="218931349#2" departLane="best" type="veh_passenger"/>
    <trip id="veh225" depart="1318.37" from="1364281503" to="4596504" departLane="best" type="veh_passenger" departSpeed="max"/>
    <trip id="veh226" depart="1324.23" from="-548529065" to="548370035#0" departLane="best" type="veh_passenger"/>
    <trip id="veh227" depart="1330.09" from="526016651" to="-14947682" departLane="best" type="veh_passenger"/>
    <trip id="veh228" depart="1335.95" from="548370033#1" to="-571372263#0" departLane="best" type="veh_passenger"/>
    <trip id="veh229" depart="1341.81" from="1421090666#0" to="33693780#3" departLane="best" type="veh_passenger" departSpeed="max"/>
    <trip id="veh230" depart="1347.67" from="11667106#0" to="-11917063" departLane="best" type="veh_passenger" departSpeed="max"/>
    <trip id="veh231" depart="1353.53" from="543888805" to="-4440330#0" departLane="best" type="veh_passenger"/>
    <trip id="veh232" depart="1359.39" from="-4440330#2" to="526016665#0" departLane="best" type="veh_passenger" departSpeed="max"/>
    <trip id="veh233" depart="1365.25" from="10418400#1" to="559462248#1" departLane="best" type="veh_passenger"/>
    <trip id="veh234" depart="1371.11" from="395173268#0" to="-942285773#0" departLane="best" type="veh_passenger" departSpeed="max"/>
    <trip id="veh235" depart="1376.96" from="-146978661#1" to="4495265#6" departLane="best" type="veh_passenger"/>
    <trip id="veh236" depart="1382.82" from="146977950#3" to="506653387#1" departLane="best" type="veh_passenger"/>
    <trip id="veh237" depart="1388.68" from="146978661#2" to="526016665#0" departLane="best" type="veh_passenger"/>
    <trip id="veh238" depart="1394.54" from="-147759323#3" to="-548370032" departLane="best" type="veh_passenger"/>
    <trip id="veh239" depart="1400.40" from="24154406#0" to="198488290#3" departLane="best" type="veh_passenger" departSpeed="max"/>
    <trip id="veh240" depart="1406.26" from="15677510#3" to="146978662#1" departLane="best" type="veh_passenger"/>
    <trip id="veh241" depart="1412.12" from="4440330#0" to="1168931401#0" departLane="best" type="veh_passenger"/>