<?xml version="1.0" encoding="UTF-8"?>

<!-- generated on 2025-10-04 15:09:12 by Eclipse SUMO netconvert Version 1.24.0
<netconvertConfiguration xmlns:xsi="http://www.w3.org/2001/XMLSchema-instance" xsi:noNamespaceSchemaLocation="http://sumo.dlr.de/xsd/netconvertConfiguration.xsd">

    <input>
        <type-files value="${SUMO_HOME}/data/typemap/osmNetconvert.typ.xml"/>
        <osm-files value="osm_bbox.osm.xml.gz"/>
    </input>

    <output>
        <output-file value="osm.net.xml.gz"/>
        <output.street-names value="true"/>
        <output.original-names value="true"/>
    </output>

    <projection>
        <proj.utm value="true"/>
    </projection>

    <processing>
        <geometry.remove value="true"/>
        <roundabouts.guess value="true"/>
    </processing>

    <tls_building>
        <tls.discard-simple value="true"/>
        <tls.join value="true"/>
        <tls.guess-signals value="true"/>
        <tls.default-type value="actuated"/>
    </tls_building>

    <ramp_guessing>
        <ramps.guess value="true"/>
    </ramp_guessing>

    <junctions>
        <junctions.join value="true"/>
        <junctions.corner-detail value="5"/>
    </junctions>

</netconvertConfiguration>
-->

<net version="1.20" junctionCornerDetail="5" limitTurnSpeed="5.50" xmlns:xsi="http://www.w3.org/2001/XMLSchema-instance" xsi:noNamespaceSchemaLocation="http://sumo.dlr.de/xsd/net_file.xsd">

    <location netOffset="-464774.01,-5246483.98" convBoundary="0.00,0.00,370.09,597.48" origBoundary="8.533391,47.370874,8.538293,47.376253" projParameter="+proj=utm +zone=32 +ellps=WGS84 +datum=WGS84 +units=m +no_defs"/>

    <type id="highway.footway" priority="1" numLanes="1" speed="2.78" allow="pedestrian" oneway="1" width="2.00"/>
    <type id="highway.pedestrian" priority="1" numLanes="1" speed="2.78" allow="pedestrian" oneway="1" width="2.00"/>
    <type id="highway.residential" priority="3" numLanes="1" speed="13.89" disallow="tram rail_urban rail rail_electric rail_fast ship container cable_car subway aircraft wheelchair scooter drone" oneway="0"/>
    <type id="highway.service" priority="1" numLanes="1" speed="5.56" allow="pedestrian delivery bicycle" oneway="0"/>
    <type id="highway.steps" priority="1" numLanes="1" speed="1.39" allow="pedestrian" oneway="1" width="2.00"/>
    <type id="highway.tertiary" priority="10" numLanes="1" speed="22.22" disallow="tram rail_urban rail rail_electric rail_fast ship container cable_car subway aircraft wheelchair scooter drone" oneway="0"/>

    <edge id=":10066996012_0" function="internal">
        <lane id=":10066996012_0_0" index="0" disallow="pedestrian tram rail_urban rail rail_electric rail_fast ship container cable_car subway aircraft wheelchair scooter drone" speed="5.86" length="1.15" shape="208.06,314.12 207.30,313.26"/>
    </edge>
    <edge id=":10066996012_1" function="internal">
        <lane id=":10066996012_1_0" index="0" disallow="pedestrian tram rail_urban rail rail_electric rail_fast ship container cable_car subway aircraft wheelchair scooter drone" speed="3.65" length="1.06" shape="208.06,314.12 207.65,313.15"/>
    </edge>
    <edge id=":10066996012_4" function="internal">
        <lane id=":10066996012_4_0" index="0" disallow="pedestrian tram rail_urban rail rail_electric rail_fast ship container cable_car subway aircraft wheelchair scooter drone" speed="5.86" length="5.52" shape="207.30,313.26 207.23,313.18 207.00,311.86 207.37,310.14 208.33,308.04"/>
    </edge>
    <edge id=":10066996012_5" function="internal">
        <lane id=":10066996012_5_0" index="0" disallow="pedestrian tram rail_urban rail rail_electric rail_fast ship container cable_car subway aircraft wheelchair scooter drone" speed="3.65" length="3.61" shape="207.65,313.15 207.50,312.79 207.61,311.91 208.39,311.46 209.83,311.46"/>
    </edge>
    <edge id=":10066996012_2" function="internal">
        <lane id=":10066996012_2_0" index="0" disallow="pedestrian tram rail_urban rail rail_electric rail_fast ship container cable_car subway aircraft wheelchair scooter drone" speed="13.89" length="5.66" shape="205.26,312.77 206.32,311.47 206.97,310.53 207.53,309.52 208.33,308.04"/>
    </edge>
    <edge id=":10066996012_3" function="internal">
        <lane id=":10066996012_3_0" index="0" disallow="pedestrian tram rail_urban rail rail_electric rail_fast ship container cable_car subway aircraft wheelchair scooter drone" speed="5.35" length="5.26" shape="205.26,312.77 206.43,311.65 207.58,311.05 208.72,310.99 209.83,311.46"/>
    </edge>
    <edge id=":10716770577_0" function="internal">
        <lane id=":10716770577_0_0" index="0" disallow="pedestrian tram rail_urban rail rail_electric rail_fast ship container cable_car subway aircraft wheelchair scooter drone" speed="13.89" length="4.21" shape="263.71,253.08 264.72,253.99 265.37,254.67 265.94,255.41 266.71,256.54"/>
        <lane id=":10716770577_0_1" index="1" disallow="pedestrian tram rail_urban rail rail_electric rail_fast ship container cable_car subway aircraft wheelchair scooter drone" speed="13.89" length="4.21" shape="261.59,255.48 262.43,256.24 262.97,256.80 263.43,257.42 264.08,258.35"/>
    </edge>
    <edge id=":11806454707_0" function="internal">
        <lane id=":11806454707_0_0" index="0" allow="pedestrian delivery bicycle" speed="3.65" length="4.67" shape="172.25,126.92 173.65,126.60 174.51,126.86 174.81,127.70 174.57,129.12"/>
    </edge>
    <edge id=":11806454736_0" function="internal">
        <lane id=":11806454736_0_0" index="0" allow="pedestrian delivery bicycle" speed="3.65" length="4.67" shape="193.08,259.37 191.64,259.49 190.83,259.12 190.64,258.24 191.08,256.87"/>
    </edge>
    <edge id=":11862120874_0" function="internal">
        <lane id=":11862120874_0_0" index="0" allow="pedestrian delivery bicycle" speed="3.65" length="4.67" shape="55.62,246.20 57.00,246.61 57.62,247.26 57.47,248.14 56.56,249.26"/>
    </edge>
    <edge id=":11862120908_0" function="internal">
        <lane id=":11862120908_0_0" index="0" allow="pedestrian delivery bicycle" speed="3.65" length="4.67" shape="100.69,329.15 100.70,330.59 100.26,331.37 99.38,331.49 98.04,330.94"/>
    </edge>
    <edge id=":11862120915_0" function="internal">
        <lane id=":11862120915_0_0" index="0" allow="pedestrian delivery bicycle" speed="3.65" length="4.67" shape="34.52,298.83 33.75,300.05 32.96,300.47 32.15,300.09 31.32,298.91"/>
    </edge>
    <edge id=":11862120939_0" function="internal">
        <lane id=":11862120939_0_0" index="0" allow="pedestrian delivery bicycle" speed="5.56" length="4.71" shape="84.30,310.65 81.66,306.76"/>
    </edge>
    <edge id=":11862120939_1" function="internal">
        <lane id=":11862120939_1_0" index="0" allow="pedestrian delivery bicycle" speed="3.65" length="1.44" shape="84.30,310.65 84.28,309.21"/>
    </edge>
    <edge id=":11862120939_4" function="internal">
        <lane id=":11862120939_4_0" index="0" allow="pedestrian delivery bicycle" speed="3.65" length="3.23" shape="84.28,309.21 84.72,308.43 85.61,308.31 86.94,308.86"/>
    </edge>
    <edge id=":11862120939_2" function="internal">
        <lane id=":11862120939_2_0" index="0" allow="pedestrian delivery bicycle" speed="5.56" length="4.70" shape="84.30,304.96 86.94,308.86"/>
    </edge>
    <edge id=":11862120939_3" function="internal">
        <lane id=":11862120939_3_0" index="0" allow="pedestrian delivery bicycle" speed="3.65" length="1.44" shape="84.30,304.96 84.31,306.40"/>
    </edge>
    <edge id=":11862120939_5" function="internal">
        <lane id=":11862120939_5_0" index="0" allow="pedestrian delivery bicycle" speed="3.65" length="3.23" shape="84.31,306.40 83.88,307.18 82.99,307.30 81.66,306.76"/>
    </edge>
    <edge id=":11862120940_0" function="internal">
        <lane id=":11862120940_0_0" index="0" allow="delivery bicycle" speed="5.01" length="4.83" shape="81.46,306.47 80.59,305.53 79.60,305.09 78.49,305.15 77.26,305.72"/>
    </edge>
    <edge id=":11862120940_1" function="internal">
        <lane id=":11862120940_1_0" index="0" allow="delivery bicycle" speed="6.75" length="10.02" shape="81.46,306.47 80.30,304.05 80.25,301.82 81.31,299.80 83.47,297.97"/>
    </edge>
    <edge id=":11862120940_2" function="internal">
        <lane id=":11862120940_2_0" index="0" allow="pedestrian delivery bicycle" speed="3.65" length="4.67" shape="81.46,306.47 81.45,305.02 81.88,304.24 82.77,304.13 84.11,304.67"/>
    </edge>
    <edge id=":11862120940_3" function="internal">
        <lane id=":11862120940_3_0" index="0" allow="delivery bicycle" speed="4.90" length="4.75" shape="85.19,300.67 84.13,301.55 83.59,302.51 83.59,303.55 84.11,304.67"/>
    </edge>
    <edge id=":11862120940_4" function="internal">
        <lane id=":11862120940_4_0" index="0" disallow="pedestrian tram rail_urban rail rail_electric rail_fast ship container cable_car subway aircraft wheelchair scooter drone" speed="13.89" length="9.40" shape="85.19,300.67 77.26,305.72"/>
    </edge>
    <edge id=":11862120940_5" function="internal">
        <lane id=":11862120940_5_0" index="0" disallow="pedestrian tram rail_urban rail rail_electric rail_fast ship container cable_car subway aircraft wheelchair scooter drone" speed="13.89" length="9.40" shape="75.54,303.03 83.47,297.97"/>
    </edge>
    <edge id=":11862120940_6" function="internal">
        <lane id=":11862120940_6_0" index="0" allow="delivery bicycle" speed="6.84" length="3.28" shape="75.54,303.03 78.03,301.89 78.57,301.86"/>
    </edge>
    <edge id=":11862120940_7" function="internal">
        <lane id=":11862120940_7_0" index="0" allow="delivery bicycle" speed="6.84" length="6.60" shape="78.57,301.86 80.29,301.78 82.31,302.71 84.11,304.67"/>
    </edge>
    <edge id=":11869396787_0" function="internal">
        <lane id=":11869396787_0_0" index="0" allow="pedestrian delivery bicycle" speed="3.65" length="4.67" shape="121.70,352.66 121.53,351.23 121.88,350.41 122.75,350.19 124.13,350.59"/>
    </edge>
    <edge id=":11869396788_0" function="internal">
        <lane id=":11869396788_0_0" index="0" allow="pedestrian delivery bicycle" speed="3.65" length="4.67" shape="131.45,359.16 131.62,360.59 131.27,361.42 130.41,361.63 129.02,361.24"/>
    </edge>
    <edge id=":11869396789_0" function="internal">
        <lane id=":11869396789_0_0" index="0" allow="pedestrian delivery bicycle" speed="5.56" length="9.32" shape="127.83,359.85 121.78,352.76"/>
    </edge>
    <edge id=":11869396789_1" function="internal">
        <lane id=":11869396789_1_0" index="0" allow="pedestrian delivery bicycle" speed="5.56" length="10.76" shape="127.83,359.85 126.24,357.32 125.91,354.96 126.87,352.77 129.10,350.76"/>
    </edge>
    <edge id=":11869396789_2" function="internal">
        <lane id=":11869396789_2_0" index="0" allow="pedestrian delivery bicycle" speed="3.65" length="4.67" shape="127.83,359.85 127.66,358.42 128.01,357.59 128.88,357.38 130.27,357.77"/>
    </edge>
    <edge id=":11869396789_3" function="internal">
        <lane id=":11869396789_3_0" index="0" allow="pedestrian delivery bicycle" speed="4.93" length="5.14" shape="130.87,353.43 129.80,354.39 129.35,355.43 129.50,356.56 130.27,357.77"/>
    </edge>
    <edge id=":11869396789_4" function="internal">
        <lane id=":11869396789_4_0" index="0" allow="pedestrian delivery bicycle" speed="5.56" length="10.14" shape="130.87,353.43 128.27,354.75 125.89,355.08 123.73,354.41 121.78,352.76"/>
    </edge>
    <edge id=":11869396789_5" function="internal">
        <lane id=":11869396789_5_0" index="0" allow="pedestrian delivery bicycle" speed="3.65" length="4.67" shape="130.87,353.43 129.43,353.42 128.65,352.98 128.54,352.09 129.10,350.76"/>
    </edge>
    <edge id=":11869396789_6" function="internal">
        <lane id=":11869396789_6_0" index="0" allow="pedestrian delivery bicycle" speed="5.42" length="5.42" shape="124.21,350.68 125.20,351.49 126.35,351.77 127.64,351.53 129.10,350.76"/>
    </edge>
    <edge id=":11869396789_7" function="internal">
        <lane id=":11869396789_7_0" index="0" allow="pedestrian delivery bicycle" speed="5.56" length="9.32" shape="124.21,350.68 130.27,357.77"/>
    </edge>
    <edge id=":11869396789_8" function="internal">
        <lane id=":11869396789_8_0" index="0" allow="pedestrian delivery bicycle" speed="3.65" length="4.67" shape="124.21,350.68 124.38,352.11 124.04,352.94 123.17,353.15 121.78,352.76"/>
    </edge>
    <edge id=":11869396813_0" function="internal">
        <lane id=":11869396813_0_0" index="0" allow="pedestrian delivery bicycle" speed="5.02" length="5.02" shape="201.20,380.08 200.23,379.10 199.18,378.67 198.06,378.80 196.85,379.47"/>
    </edge>
    <edge id=":11869396813_1" function="internal">
        <lane id=":11869396813_1_0" index="0" disallow="tram rail_urban rail rail_electric rail_fast ship container cable_car subway aircraft wheelchair scooter drone" speed="13.89" length="6.20" shape="201.78,375.70 196.85,379.47"/>
    </edge>
    <edge id=":11869396815_0" function="internal">
        <lane id=":11869396815_0_0" index="0" allow="pedestrian delivery bicycle" speed="5.56" length="3.49" shape="209.76,394.33 209.42,393.42 209.54,392.65 209.66,391.89 209.30,390.99"/>
    </edge>
    <edge id=":11869396815_1" function="internal">
        <lane id=":11869396815_1_0" index="0" allow="pedestrian delivery bicycle" speed="3.65" length="4.67" shape="209.76,394.33 209.71,392.89 210.13,392.10 211.01,391.96 212.36,392.47"/>
    </edge>
    <edge id=":11869396816_0" function="internal">
        <lane id=":11869396816_0_0" index="0" allow="pedestrian delivery bicycle" speed="3.65" length="4.67" shape="254.96,434.37 255.96,435.41 256.18,436.28 255.62,436.97 254.27,437.49"/>
    </edge>
    <edge id=":12547806201_0" function="internal">
        <lane id=":12547806201_0_0" index="0" allow="pedestrian delivery bicycle" speed="3.65" length="4.67" shape="278.05,122.07 279.46,121.77 280.31,122.05 280.60,122.90 280.33,124.31"/>
    </edge>
    <edge id=":12547806204_0" function="internal">
        <lane id=":12547806204_0_0" index="0" allow="pedestrian delivery bicycle" speed="5.09" length="5.03" shape="246.55,145.84 245.38,145.09 244.25,144.87 243.17,145.20 242.12,146.07"/>
    </edge>
    <edge id=":12547806204_1" function="internal">
        <lane id=":12547806204_1_0" index="0" allow="pedestrian delivery bicycle" speed="5.56" length="10.16" shape="246.55,145.84 244.72,143.74 244.00,141.56 244.39,139.30 245.89,136.95"/>
    </edge>
    <edge id=":12547806204_2" function="internal">
        <lane id=":12547806204_2_0" index="0" allow="pedestrian delivery bicycle" speed="3.65" length="4.67" shape="246.55,145.84 246.16,144.45 246.38,143.58 247.21,143.24 248.64,143.42"/>
    </edge>
    <edge id=":12547806204_3" function="internal">
        <lane id=":12547806204_3_0" index="0" allow="pedestrian delivery bicycle" speed="5.04" length="5.00" shape="248.31,139.04 247.57,140.20 247.38,141.31 247.74,142.38 248.64,143.42"/>
    </edge>
    <edge id=":12547806204_4" function="internal">
        <lane id=":12547806204_4_0" index="0" allow="pedestrian delivery bicycle" speed="5.56" length="9.36" shape="248.31,139.04 242.12,146.07"/>
    </edge>
    <edge id=":12547806204_5" function="internal">
        <lane id=":12547806204_5_0" index="0" allow="pedestrian delivery bicycle" speed="3.65" length="4.67" shape="248.31,139.04 246.92,139.43 246.06,139.21 245.71,138.39 245.89,136.95"/>
    </edge>
    <edge id=":12547806204_6" function="internal">
        <lane id=":12547806204_6_0" index="0" allow="pedestrian delivery bicycle" speed="5.56" length="9.29" shape="239.75,143.92 245.89,136.95"/>
    </edge>
    <edge id=":12547806204_7" function="internal">
        <lane id=":12547806204_7_0" index="0" allow="pedestrian delivery bicycle" speed="5.56" length="10.11" shape="239.75,143.92 241.86,142.17 244.04,141.50 246.30,141.91 248.64,143.42"/>
    </edge>
    <edge id=":12547806204_8" function="internal">
        <lane id=":12547806204_8_0" index="0" allow="pedestrian delivery bicycle" speed="3.65" length="4.67" shape="239.75,143.92 241.14,143.57 242.01,143.81 242.33,144.64 242.12,146.07"/>
    </edge>
    <edge id=":12547806205_0" function="internal">
        <lane id=":12547806205_0_0" index="0" allow="pedestrian delivery bicycle" speed="3.65" length="4.67" shape="232.73,156.46 231.34,156.82 230.47,156.58 230.15,155.75 230.36,154.32"/>
    </edge>
    <edge id=":12547806213_0" function="internal">
        <lane id=":12547806213_0_0" index="0" allow="pedestrian delivery bicycle" speed="3.65" length="4.67" shape="214.83,193.07 213.47,193.55 212.59,193.38 212.19,192.58 212.28,191.14"/>
    </edge>
    <edge id=":12547807373_0" function="internal">
        <lane id=":12547807373_0_0" index="0" allow="pedestrian delivery bicycle" speed="3.65" length="4.67" shape="246.39,136.37 247.78,135.98 248.65,136.20 248.99,137.03 248.82,138.46"/>
    </edge>
    <edge id=":1388689546_0" function="internal">
        <lane id=":1388689546_0_0" index="0" disallow="pedestrian tram rail_urban rail rail_electric rail_fast ship container cable_car subway aircraft wheelchair scooter drone" speed="13.89" length="4.88" shape="152.44,245.71 152.01,244.19 151.18,243.21 150.50,242.26 150.51,240.79"/>
        <lane id=":1388689546_0_1" index="1" disallow="pedestrian tram rail_urban rail rail_electric rail_fast ship container cable_car subway aircraft wheelchair scooter drone" speed="13.89" length="4.88" shape="152.44,245.71 152.52,244.47 152.78,243.65 153.16,242.85 153.59,241.65"/>
    </edge>
    <edge id=":1552918953_0" function="internal">
        <lane id=":1552918953_0_0" index="0" disallow="pedestrian tram rail_urban rail rail_electric rail_fast ship container cable_car subway aircraft wheelchair scooter drone" speed="13.89" length="5.17" shape="267.91,258.53 270.21,263.26"/>
        <lane id=":1552918953_0_1" index="1" disallow="pedestrian tram rail_urban rail rail_electric rail_fast ship container cable_car subway aircraft wheelchair scooter drone" speed="13.89" length="5.17" shape="265.07,260.00 267.29,264.58"/>
    </edge>
    <edge id=":1552956916_0" function="internal">
        <lane id=":1552956916_0_0" index="0" allow="delivery bicycle" speed="5.14" length="4.90" shape="93.99,265.73 93.25,264.63 92.33,263.99 91.22,263.83 89.92,264.12"/>
    </edge>
    <edge id=":1552956916_1" function="internal">
        <lane id=":1552956916_1_0" index="0" disallow="pedestrian tram rail_urban rail rail_electric rail_fast ship container cable_car subway aircraft wheelchair scooter drone" speed="3.65" length="1.44" shape="93.99,265.73 94.19,264.30"/>
    </edge>
    <edge id=":1552956916_6" function="internal">
        <lane id=":1552956916_6_0" index="0" disallow="pedestrian tram rail_urban rail rail_electric rail_fast ship container cable_car subway aircraft wheelchair scooter drone" speed="3.65" length="3.23" shape="94.19,264.30 94.73,263.60 95.63,263.61 96.87,264.34"/>
    </edge>
    <edge id=":1552956916_2" function="internal">
        <lane id=":1552956916_2_0" index="0" disallow="pedestrian tram rail_urban rail rail_electric rail_fast ship container cable_car subway aircraft wheelchair scooter drone" speed="8.33" length="16.78" shape="89.78,249.15 91.21,252.90 93.07,256.84 95.05,260.74 96.87,264.34"/>
    </edge>
    <edge id=":1552956916_3" function="internal">
        <lane id=":1552956916_3_0" index="0" allow="delivery bicycle" speed="6.95" length="13.35" shape="89.78,249.15 91.36,255.12 91.91,259.60 91.49,262.22"/>
    </edge>
    <edge id=":1552956916_7" function="internal">
        <lane id=":1552956916_7_0" index="0" allow="delivery bicycle" speed="6.95" length="2.53" shape="91.49,262.22 91.43,262.61 89.92,264.12"/>
    </edge>
    <edge id=":1552956916_4" function="internal">
        <lane id=":1552956916_4_0" index="0" allow="delivery bicycle" speed="6.94" length="9.75" shape="88.78,261.14 91.35,260.54 93.56,260.88 95.40,262.14 96.87,264.34"/>
    </edge>
    <edge id=":1552956916_5" function="internal">
        <lane id=":1552956916_5_0" index="0" allow="pedestrian delivery bicycle" speed="3.65" length="4.67" shape="88.78,261.14 90.18,261.45 90.84,262.06 90.76,262.95 89.92,264.12"/>
    </edge>
    <edge id=":1552956967_0" function="internal">
        <lane id=":1552956967_0_0" index="0" allow="delivery bicycle" speed="4.93" length="4.69" shape="186.64,406.22 185.74,405.20 184.77,404.69 183.74,404.68 182.65,405.18"/>
    </edge>
    <edge id=":1552956967_1" function="internal">
        <lane id=":1552956967_1_0" index="0" disallow="pedestrian tram rail_urban rail rail_electric rail_fast ship container cable_car subway aircraft wheelchair scooter drone" speed="8.33" length="9.39" shape="186.64,406.22 181.38,398.44"/>
    </edge>
    <edge id=":1552956967_2" function="internal">
        <lane id=":1552956967_2_0" index="0" disallow="pedestrian tram rail_urban rail rail_electric rail_fast ship container cable_car subway aircraft wheelchair scooter drone" speed="8.33" length="9.36" shape="184.04,396.66 189.28,404.42"/>
    </edge>
    <edge id=":1552956967_3" function="internal">
        <lane id=":1552956967_3_0" index="0" allow="delivery bicycle" speed="6.75" length="3.33" shape="184.04,396.66 185.27,399.16 185.32,399.70"/>
    </edge>
    <edge id=":1552956967_7" function="internal">
        <lane id=":1552956967_7_0" index="0" allow="delivery bicycle" speed="6.75" length="6.51" shape="185.32,399.70 185.45,401.42 184.58,403.42 182.65,405.18"/>
    </edge>
    <edge id=":1552956967_4" function="internal">
        <lane id=":1552956967_4_0" index="0" allow="delivery bicycle" speed="4.89" length="4.67" shape="180.88,402.51 181.75,401.70 182.12,400.75 182.00,399.67 181.38,398.44"/>
    </edge>
    <edge id=":1552956967_5" function="internal">
        <lane id=":1552956967_5_0" index="0" allow="delivery bicycle" speed="6.78" length="9.80" shape="180.88,402.51 183.24,401.41 185.42,401.36 187.44,402.36 189.28,404.42"/>
    </edge>
    <edge id=":1552956967_6" function="internal">
        <lane id=":1552956967_6_0" index="0" allow="pedestrian delivery bicycle" speed="3.65" length="4.67" shape="180.88,402.51 182.32,402.51 183.10,402.96 183.20,403.85 182.65,405.18"/>
    </edge>
    <edge id=":1552956980_0" function="internal">
        <lane id=":1552956980_0_0" index="0" allow="pedestrian delivery bicycle" speed="3.65" length="4.67" shape="62.75,281.62 61.31,281.62 60.53,281.18 60.41,280.30 60.96,278.96"/>
    </edge>
    <edge id=":156343938_0" function="internal">
        <lane id=":156343938_0_0" index="0" disallow="pedestrian tram rail_urban rail rail_electric rail_fast ship container cable_car subway aircraft wheelchair scooter drone" speed="3.65" length="4.67" shape="54.58,101.50 55.44,100.34 56.26,99.98 57.04,100.42 57.78,101.66"/>
    </edge>
    <edge id=":156352016_0" function="internal">
        <lane id=":156352016_0_0" index="0" disallow="pedestrian tram rail_urban rail rail_electric rail_fast ship container cable_car subway aircraft wheelchair scooter drone" speed="13.89" length="8.46" shape="261.61,331.47 254.85,336.54"/>
        <lane id=":156352016_0_1" index="1" disallow="pedestrian tram rail_urban rail rail_electric rail_fast ship container cable_car subway aircraft wheelchair scooter drone" speed="13.89" length="8.46" shape="259.69,328.91 252.92,333.99"/>
    </edge>
    <edge id=":156352016_2" function="internal">
        <lane id=":156352016_2_0" index="0" disallow="pedestrian tram rail_urban rail rail_electric rail_fast ship container cable_car subway aircraft wheelchair scooter drone" speed="6.92" length="7.83" shape="254.78,326.96 255.24,329.08 255.08,330.95 254.31,332.59 252.92,333.99"/>
    </edge>
    <edge id=":156360984_0" function="internal">
        <lane id=":156360984_0_0" index="0" disallow="pedestrian tram rail_urban rail rail_electric rail_fast ship container cable_car subway aircraft wheelchair scooter drone" speed="13.89" length="5.18" shape="242.06,241.80 246.92,243.82"/>
        <lane id=":156360984_0_1" index="1" disallow="pedestrian tram rail_urban rail rail_electric rail_fast ship container cable_car subway aircraft wheelchair scooter drone" speed="13.89" length="5.18" shape="240.91,244.78 245.60,246.74"/>
    </edge>
    <edge id=":2528311035_0" function="internal">
        <lane id=":2528311035_0_0" index="0" disallow="pedestrian tram rail_urban rail rail_electric rail_fast ship container cable_car subway aircraft wheelchair scooter drone" speed="13.89" length="5.13" shape="64.77,211.35 59.96,213.14"/>
    </edge>
    <edge id=":302782247_0" function="internal">
        <lane id=":302782247_0_0" index="0" disallow="pedestrian tram rail_urban rail rail_electric rail_fast ship container cable_car subway aircraft wheelchair scooter drone" speed="13.89" length="8.09" shape="110.26,155.77 109.14,157.85 108.72,159.45 108.34,161.08 107.31,163.21"/>
        <lane id=":302782247_0_1" index="1" disallow="pedestrian tram rail_urban rail rail_electric rail_fast ship container cable_car subway aircraft wheelchair scooter drone" speed="13.89" length="8.09" shape="110.26,155.77 108.70,157.59 107.36,158.61 106.05,159.65 104.59,161.53"/>
    </edge>
    <edge id=":3028549105_0" function="internal">
        <lane id=":3028549105_0_0" index="0" allow="bus bicycle" speed="6.05" length="13.99" shape="116.92,134.16 119.64,131.87 121.05,132.25 121.14,135.33 119.93,141.09"/>
    </edge>
    <edge id=":3028549105_1" function="internal">
        <lane id=":3028549105_1_0" index="0" allow="bus bicycle" speed="4.00" length="6.06" shape="116.92,134.16 118.60,134.99 119.25,135.95 118.87,137.04 117.47,138.28"/>
    </edge>
    <edge id=":3250568378_0" function="internal">
        <lane id=":3250568378_0_0" index="0" disallow="pedestrian tram rail_urban rail rail_electric rail_fast ship container cable_car subway aircraft wheelchair scooter drone" speed="13.89" length="9.80" shape="128.66,219.52 127.28,217.39 126.20,216.02 124.89,214.86 122.85,213.36"/>
        <lane id=":3250568378_0_1" index="1" disallow="pedestrian tram rail_urban rail rail_electric rail_fast ship container cable_car subway aircraft wheelchair scooter drone" speed="13.89" length="9.80" shape="131.37,217.81 129.79,215.38 128.55,213.81 127.05,212.47 124.71,210.76"/>
        <lane id=":3250568378_0_2" index="2" disallow="pedestrian tram rail_urban rail rail_electric rail_fast ship container cable_car subway aircraft wheelchair scooter drone" speed="13.89" length="9.80" shape="131.37,217.81 130.02,214.82 129.54,212.45 128.77,210.35 126.58,208.16"/>
    </edge>
    <edge id=":3250568425_0" function="internal">
        <lane id=":3250568425_0_0" index="0" disallow="pedestrian tram rail_urban rail rail_electric rail_fast ship container cable_car subway aircraft wheelchair scooter drone" speed="13.89" length="7.31" shape="276.56,281.45 277.17,283.62 277.91,285.04 278.56,286.47 278.88,288.67"/>
        <lane id=":3250568425_0_1" index="1" disallow="pedestrian tram rail_urban rail rail_electric rail_fast ship container cable_car subway aircraft wheelchair scooter drone" speed="13.89" length="7.31" shape="273.41,281.97 274.00,284.02 274.72,285.35 275.36,286.69 275.68,288.77"/>
        <lane id=":3250568425_0_2" index="2" disallow="pedestrian tram rail_urban rail rail_electric rail_fast ship container cable_car subway aircraft wheelchair scooter drone" speed="13.89" length="7.31" shape="273.41,281.97 273.49,284.01 273.12,285.40 272.66,286.81 272.49,288.87"/>
    </edge>
    <edge id=":3250568438_0" function="internal">
        <lane id=":3250568438_0_0" index="0" disallow="pedestrian tram rail_urban rail rail_electric rail_fast ship container cable_car subway aircraft wheelchair scooter drone" speed="13.89" length="4.30" shape="208.43,307.86 209.03,306.74 209.41,305.95 209.76,305.15 210.24,303.97"/>
    </edge>
    <edge id=":3250568442_0" function="internal">
        <lane id=":3250568442_0_0" index="0" disallow="pedestrian tram rail_urban rail rail_electric rail_fast ship container cable_car subway aircraft wheelchair scooter drone" speed="13.89" length="8.06" shape="212.28,312.74 214.41,313.86 215.86,314.68 217.39,315.25 219.72,315.62"/>
    </edge>
    <edge id=":3250568442_1" function="internal">
        <lane id=":3250568442_1_0" index="0" disallow="pedestrian tram rail_urban rail rail_electric rail_fast ship container cable_car subway aircraft wheelchair scooter drone" speed="3.65" length="4.67" shape="212.28,312.74 213.02,313.98 213.04,314.88 212.33,315.43 210.91,315.63"/>
    </edge>
    <edge id=":3250568442_2" function="internal">
        <lane id=":3250568442_2_0" index="0" allow="delivery bicycle" speed="5.65" length="4.55" shape="213.10,319.30 213.00,318.11 212.61,317.10 211.91,316.27 210.91,315.63"/>
    </edge>
    <edge id=":3250568442_3" function="internal">
        <lane id=":3250568442_3_0" index="0" allow="delivery bicycle" speed="6.27" length="8.63" shape="213.10,319.30 213.59,317.46 214.85,316.23 216.90,315.62 219.72,315.62"/>
    </edge>
    <edge id=":3327339758_0" function="internal">
        <lane id=":3327339758_0_0" index="0" allow="pedestrian delivery bicycle" speed="3.65" length="4.67" shape="193.66,528.77 193.25,530.15 192.60,530.77 191.72,530.62 190.60,529.70"/>
    </edge>
    <edge id=":3349675722_0" function="internal">
        <lane id=":3349675722_0_0" index="0" allow="delivery bicycle" speed="5.56" length="0.67" shape="17.91,353.03 17.73,352.94 17.61,352.89 17.47,352.86 17.27,352.84"/>
    </edge>
    <edge id=":3349675724_0" function="internal">
        <lane id=":3349675724_0_0" index="0" disallow="pedestrian tram rail_urban rail rail_electric rail_fast ship container cable_car subway aircraft wheelchair scooter drone" speed="13.89" length="10.37" shape="32.98,385.04 27.15,376.47"/>